Propranolol
  unicon  03102511263D 1   1.00000     0.00000     0
unicon 1.5.0
 40 41  0  0  0  0            999 V2000
    0.3569    1.4868    0.7167 O   0  0  0  0  0  0  0  0  0  0  0  0
    2.7841    2.1026    1.9563 O   0  0  0  0  0  0  0  0  0  0  0  0
    4.2345   -0.2507    1.2041 N   0  0  0  0  0  0  0  0  0  0  0  0
    2.7506    1.6406    0.6030 C   0  0  1  0  0  0  0  0  0  0  0  0
    2.9583    0.1243    0.6107 C   0  0  0  0  0  0  0  0  0  0  0  0
    4.1588   -0.2306    2.6586 C   0  0  0  0  0  0  0  0  0  0  0  0
    1.4257    2.0654   -0.0264 C   0  0  0  0  0  0  0  0  0  0  0  0
    5.5029   -0.6255    3.2639 C   0  0  0  0  0  0  0  0  0  0  0  0
    3.0514   -1.1714    3.1227 C   0  0  0  0  0  0  0  0  0  0  0  0
   -0.8979    1.7597    0.2964 C   0  0  0  0  0  0  0  0  0  0  0  0
   -2.0240    1.2525    0.9402 C   0  0  0  0  0  0  0  0  0  0  0  0
   -3.2936    1.5675    0.4650 C   0  0  0  0  0  0  0  0  0  0  0  0
   -1.0439    2.5793   -0.8182 C   0  0  0  0  0  0  0  0  0  0  0  0
   -1.9157    0.4302    2.0589 C   0  0  0  0  0  0  0  0  0  0  0  0
   -3.4527    2.3846   -0.6492 C   0  0  0  0  0  0  0  0  0  0  0  0
   -2.3191    2.8843   -1.2825 C   0  0  0  0  0  0  0  0  0  0  0  0
   -4.4231    1.0647    1.1023 C   0  0  0  0  0  0  0  0  0  0  0  0
   -3.0367   -0.0789    2.7058 C   0  0  0  0  0  0  0  0  0  0  0  0
   -4.2982    0.2444    2.2181 C   0  0  0  0  0  0  0  0  0  0  0  0
    3.5004    2.0671    0.0971 H   0  0  0  0  0  0  0  0  0  0  0  0
    2.2211   -0.2995    1.1369 H   0  0  0  0  0  0  0  0  0  0  0  0
    2.9301   -0.2098   -0.3314 H   0  0  0  0  0  0  0  0  0  0  0  0
    3.9349    0.6980    2.9547 H   0  0  0  0  0  0  0  0  0  0  0  0
    4.9371    0.3946    0.9041 H   0  0  0  0  0  0  0  0  0  0  0  0
    1.3483    3.0622   -0.0056 H   0  0  0  0  0  0  0  0  0  0  0  0
    1.3867    1.7477   -0.9738 H   0  0  0  0  0  0  0  0  0  0  0  0
    5.4374   -0.6077    4.2616 H   0  0  0  0  0  0  0  0  0  0  0  0
    5.7464   -1.5473    2.9623 H   0  0  0  0  0  0  0  0  0  0  0  0
    6.2058    0.0197    2.9645 H   0  0  0  0  0  0  0  0  0  0  0  0
    2.9991   -1.1578    4.1212 H   0  0  0  0  0  0  0  0  0  0  0  0
    2.1776   -0.8725    2.7391 H   0  0  0  0  0  0  0  0  0  0  0  0
    3.2514   -2.1006    2.8120 H   0  0  0  0  0  0  0  0  0  0  0  0
    2.6500    3.0934    1.9737 H   0  0  0  0  0  0  0  0  0  0  0  0
   -0.2378    2.9466   -1.2823 H   0  0  0  0  0  0  0  0  0  0  0  0
   -1.0069    0.1995    2.4066 H   0  0  0  0  0  0  0  0  0  0  0  0
   -4.3660    2.6090   -0.9892 H   0  0  0  0  0  0  0  0  0  0  0  0
   -2.4229    3.4723   -2.0846 H   0  0  0  0  0  0  0  0  0  0  0  0
   -5.3322    1.2951    0.7553 H   0  0  0  0  0  0  0  0  0  0  0  0
   -2.9373   -0.6676    3.5081 H   0  0  0  0  0  0  0  0  0  0  0  0
   -5.1156   -0.1129    2.6699 H   0  0  0  0  0  0  0  0  0  0  0  0
  1  7  1  0  0  0  0
  1 10  1  0  0  0  0
  2  4  1  0  0  0  0
  2 33  1  0  0  0  0
  3  5  1  0  0  0  0
  3  6  1  0  0  0  0
  3 24  1  0  0  0  0
  4  5  1  0  0  0  0
  4  7  1  0  0  0  0
  4 20  1  0  0  0  0
  5 21  1  0  0  0  0
  5 22  1  0  0  0  0
  6  8  1  0  0  0  0
  6  9  1  0  0  0  0
  6 23  1  0  0  0  0
  7 25  1  0  0  0  0
  7 26  1  0  0  0  0
  8 27  1  0  0  0  0
  8 28  1  0  0  0  0
  8 29  1  0  0  0  0
  9 30  1  0  0  0  0
  9 31  1  0  0  0  0
  9 32  1  0  0  0  0
 10 11  1  0  0  0  0
 10 13  2  0  0  0  0
 11 12  1  0  0  0  0
 11 14  2  0  0  0  0
 12 15  1  0  0  0  0
 12 17  2  0  0  0  0
 13 16  1  0  0  0  0
 13 34  1  0  0  0  0
 14 18  1  0  0  0  0
 14 35  1  0  0  0  0
 15 16  2  0  0  0  0
 15 36  1  0  0  0  0
 16 37  1  0  0  0  0
 17 19  1  0  0  0  0
 17 38  1  0  0  0  0
 18 19  2  0  0  0  0
 18 39  1  0  0  0  0
 19 40  1  0  0  0  0
M  END
$$$$
Propranolol
  unicon  03102511263D 1   1.00000     0.00000     0
unicon 1.5.0
 40 41  0  0  0  0            999 V2000
    0.3569    1.4868    0.7167 O   0  0  0  0  0  0  0  0  0  0  0  0
    2.7841    2.1026    1.9563 O   0  0  0  0  0  0  0  0  0  0  0  0
    4.2345   -0.2507    1.2041 N   0  0  0  0  0  0  0  0  0  0  0  0
    2.7506    1.6406    0.6030 C   0  0  1  0  0  0  0  0  0  0  0  0
    2.9583    0.1243    0.6107 C   0  0  0  0  0  0  0  0  0  0  0  0
    4.1588   -0.2306    2.6586 C   0  0  0  0  0  0  0  0  0  0  0  0
    1.4257    2.0654   -0.0264 C   0  0  0  0  0  0  0  0  0  0  0  0
    5.5029   -0.6255    3.2639 C   0  0  0  0  0  0  0  0  0  0  0  0
    3.0514   -1.1714    3.1227 C   0  0  0  0  0  0  0  0  0  0  0  0
    0.0085    2.1032    1.8675 C   0  0  0  0  0  0  0  0  0  0  0  0
   -1.0201    1.6330    2.6804 C   0  0  0  0  0  0  0  0  0  0  0  0
   -1.3357    2.3067    3.8565 C   0  0  0  0  0  0  0  0  0  0  0  0
    0.7177    3.2430    2.2324 C   0  0  0  0  0  0  0  0  0  0  0  0
   -1.7502    0.4949    2.3472 C   0  0  0  0  0  0  0  0  0  0  0  0
   -0.6351    3.4482    4.2315 C   0  0  0  0  0  0  0  0  0  0  0  0
    0.3900    3.9066    3.4101 C   0  0  0  0  0  0  0  0  0  0  0  0
   -2.3617    1.8436    4.6736 C   0  0  0  0  0  0  0  0  0  0  0  0
   -2.7783    0.0208    3.1552 C   0  0  0  0  0  0  0  0  0  0  0  0
   -3.0819    0.7058    4.3267 C   0  0  0  0  0  0  0  0  0  0  0  0
    3.5004    2.0671    0.0971 H   0  0  0  0  0  0  0  0  0  0  0  0
    2.2211   -0.2995    1.1369 H   0  0  0  0  0  0  0  0  0  0  0  0
    2.9301   -0.2098   -0.3314 H   0  0  0  0  0  0  0  0  0  0  0  0
    3.9349    0.6980    2.9547 H   0  0  0  0  0  0  0  0  0  0  0  0
    4.9371    0.3946    0.9041 H   0  0  0  0  0  0  0  0  0  0  0  0
    1.3483    3.0622   -0.0056 H   0  0  0  0  0  0  0  0  0  0  0  0
    1.3867    1.7477   -0.9738 H   0  0  0  0  0  0  0  0  0  0  0  0
    5.4374   -0.6077    4.2616 H   0  0  0  0  0  0  0  0  0  0  0  0
    5.7464   -1.5473    2.9623 H   0  0  0  0  0  0  0  0  0  0  0  0
    6.2058    0.0197    2.9645 H   0  0  0  0  0  0  0  0  0  0  0  0
    2.9991   -1.1578    4.1212 H   0  0  0  0  0  0  0  0  0  0  0  0
    2.1776   -0.8725    2.7391 H   0  0  0  0  0  0  0  0  0  0  0  0
    3.2514   -2.1006    2.8120 H   0  0  0  0  0  0  0  0  0  0  0  0
    2.6500    3.0934    1.9737 H   0  0  0  0  0  0  0  0  0  0  0  0
    1.4579    3.5829    1.6521 H   0  0  0  0  0  0  0  0  0  0  0  0
   -1.5293    0.0051    1.5038 H   0  0  0  0  0  0  0  0  0  0  0  0
   -0.8641    3.9309    5.0768 H   0  0  0  0  0  0  0  0  0  0  0  0
    0.8995    4.7267    3.6706 H   0  0  0  0  0  0  0  0  0  0  0  0
   -2.5832    2.3328    5.5172 H   0  0  0  0  0  0  0  0  0  0  0  0
   -3.2904   -0.7987    2.8981 H   0  0  0  0  0  0  0  0  0  0  0  0
   -3.8183    0.3800    4.9198 H   0  0  0  0  0  0  0  0  0  0  0  0
  1  7  1  0  0  0  0
  1 10  1  0  0  0  0
  2  4  1  0  0  0  0
  2 33  1  0  0  0  0
  3  5  1  0  0  0  0
  3  6  1  0  0  0  0
  3 24  1  0  0  0  0
  4  5  1  0  0  0  0
  4  7  1  0  0  0  0
  4 20  1  0  0  0  0
  5 21  1  0  0  0  0
  5 22  1  0  0  0  0
  6  8  1  0  0  0  0
  6  9  1  0  0  0  0
  6 23  1  0  0  0  0
  7 25  1  0  0  0  0
  7 26  1  0  0  0  0
  8 27  1  0  0  0  0
  8 28  1  0  0  0  0
  8 29  1  0  0  0  0
  9 30  1  0  0  0  0
  9 31  1  0  0  0  0
  9 32  1  0  0  0  0
 10 11  1  0  0  0  0
 10 13  2  0  0  0  0
 11 12  1  0  0  0  0
 11 14  2  0  0  0  0
 12 15  1  0  0  0  0
 12 17  2  0  0  0  0
 13 16  1  0  0  0  0
 13 34  1  0  0  0  0
 14 18  1  0  0  0  0
 14 35  1  0  0  0  0
 15 16  2  0  0  0  0
 15 36  1  0  0  0  0
 16 37  1  0  0  0  0
 17 19  1  0  0  0  0
 17 38  1  0  0  0  0
 18 19  2  0  0  0  0
 18 39  1  0  0  0  0
 19 40  1  0  0  0  0
M  END
$$$$
Propranolol
  unicon  03102511263D 1   1.00000     0.00000     0
unicon 1.5.0
 40 41  0  0  0  0            999 V2000
    0.3569    1.4868    0.7167 O   0  0  0  0  0  0  0  0  0  0  0  0
    2.7841    2.1026    1.9563 O   0  0  0  0  0  0  0  0  0  0  0  0
    4.2345   -0.2507    1.2041 N   0  0  0  0  0  0  0  0  0  0  0  0
    2.7506    1.6406    0.6030 C   0  0  1  0  0  0  0  0  0  0  0  0
    2.9583    0.1243    0.6107 C   0  0  0  0  0  0  0  0  0  0  0  0
    4.1588   -0.2306    2.6586 C   0  0  0  0  0  0  0  0  0  0  0  0
    1.4257    2.0654   -0.0264 C   0  0  0  0  0  0  0  0  0  0  0  0
    5.5029   -0.6255    3.2639 C   0  0  0  0  0  0  0  0  0  0  0  0
    3.0514   -1.1714    3.1227 C   0  0  0  0  0  0  0  0  0  0  0  0
    0.0644    0.1928    0.4604 C   0  0  0  0  0  0  0  0  0  0  0  0
   -0.9581   -0.4830    1.1219 C   0  0  0  0  0  0  0  0  0  0  0  0
   -1.2172   -1.8159    0.8170 C   0  0  0  0  0  0  0  0  0  0  0  0
    0.8232   -0.4644   -0.5027 C   0  0  0  0  0  0  0  0  0  0  0  0
   -1.7384    0.1434    2.0906 C   0  0  0  0  0  0  0  0  0  0  0  0
   -0.4648   -2.4844   -0.1429 C   0  0  0  0  0  0  0  0  0  0  0  0
    0.5535   -1.7971   -0.7959 C   0  0  0  0  0  0  0  0  0  0  0  0
   -2.2366   -2.4977    1.4734 C   0  0  0  0  0  0  0  0  0  0  0  0
   -2.7608   -0.5265    2.7542 C   0  0  0  0  0  0  0  0  0  0  0  0
   -3.0066   -1.8583    2.4386 C   0  0  0  0  0  0  0  0  0  0  0  0
    3.5004    2.0671    0.0971 H   0  0  0  0  0  0  0  0  0  0  0  0
    2.2211   -0.2995    1.1369 H   0  0  0  0  0  0  0  0  0  0  0  0
    2.9301   -0.2098   -0.3314 H   0  0  0  0  0  0  0  0  0  0  0  0
    3.9349    0.6980    2.9547 H   0  0  0  0  0  0  0  0  0  0  0  0
    4.9371    0.3946    0.9041 H   0  0  0  0  0  0  0  0  0  0  0  0
    1.3483    3.0622   -0.0056 H   0  0  0  0  0  0  0  0  0  0  0  0
    1.3867    1.7477   -0.9738 H   0  0  0  0  0  0  0  0  0  0  0  0
    5.4374   -0.6077    4.2616 H   0  0  0  0  0  0  0  0  0  0  0  0
    5.7464   -1.5473    2.9623 H   0  0  0  0  0  0  0  0  0  0  0  0
    6.2058    0.0197    2.9645 H   0  0  0  0  0  0  0  0  0  0  0  0
    2.9991   -1.1578    4.1212 H   0  0  0  0  0  0  0  0  0  0  0  0
    2.1776   -0.8725    2.7391 H   0  0  0  0  0  0  0  0  0  0  0  0
    3.2514   -2.1006    2.8120 H   0  0  0  0  0  0  0  0  0  0  0  0
    2.6500    3.0934    1.9737 H   0  0  0  0  0  0  0  0  0  0  0  0
    1.5572    0.0178   -0.9809 H   0  0  0  0  0  0  0  0  0  0  0  0
   -1.5586    1.1012    2.3151 H   0  0  0  0  0  0  0  0  0  0  0  0
   -0.6525   -3.4424   -0.3598 H   0  0  0  0  0  0  0  0  0  0  0  0
    1.1005   -2.2690   -1.4873 H   0  0  0  0  0  0  0  0  0  0  0  0
   -2.4171   -3.4554    1.2493 H   0  0  0  0  0  0  0  0  0  0  0  0
   -3.3099   -0.0583    3.4465 H   0  0  0  0  0  0  0  0  0  0  0  0
   -3.7372   -2.3562    2.9059 H   0  0  0  0  0  0  0  0  0  0  0  0
  1  7  1  0  0  0  0
  1 10  1  0  0  0  0
  2  4  1  0  0  0  0
  2 33  1  0  0  0  0
  3  5  1  0  0  0  0
  3  6  1  0  0  0  0
  3 24  1  0  0  0  0
  4  5  1  0  0  0  0
  4  7  1  0  0  0  0
  4 20  1  0  0  0  0
  5 21  1  0  0  0  0
  5 22  1  0  0  0  0
  6  8  1  0  0  0  0
  6  9  1  0  0  0  0
  6 23  1  0  0  0  0
  7 25  1  0  0  0  0
  7 26  1  0  0  0  0
  8 27  1  0  0  0  0
  8 28  1  0  0  0  0
  8 29  1  0  0  0  0
  9 30  1  0  0  0  0
  9 31  1  0  0  0  0
  9 32  1  0  0  0  0
 10 11  1  0  0  0  0
 10 13  2  0  0  0  0
 11 12  1  0  0  0  0
 11 14  2  0  0  0  0
 12 15  1  0  0  0  0
 12 17  2  0  0  0  0
 13 16  1  0  0  0  0
 13 34  1  0  0  0  0
 14 18  1  0  0  0  0
 14 35  1  0  0  0  0
 15 16  2  0  0  0  0
 15 36  1  0  0  0  0
 16 37  1  0  0  0  0
 17 19  1  0  0  0  0
 17 38  1  0  0  0  0
 18 19  2  0  0  0  0
 18 39  1  0  0  0  0
 19 40  1  0  0  0  0
M  END
$$$$
Propranolol
  unicon  03102511263D 1   1.00000     0.00000     0
unicon 1.5.0
 40 41  0  0  0  0            999 V2000
    1.3889    1.6068   -1.3746 O   0  0  0  0  0  0  0  0  0  0  0  0
    2.7841    2.1026    1.9563 O   0  0  0  0  0  0  0  0  0  0  0  0
    4.2345   -0.2507    1.2041 N   0  0  0  0  0  0  0  0  0  0  0  0
    2.7506    1.6406    0.6030 C   0  0  1  0  0  0  0  0  0  0  0  0
    2.9583    0.1243    0.6107 C   0  0  0  0  0  0  0  0  0  0  0  0
    4.1588   -0.2306    2.6586 C   0  0  0  0  0  0  0  0  0  0  0  0
    1.4257    2.0654   -0.0264 C   0  0  0  0  0  0  0  0  0  0  0  0
    5.5029   -0.6255    3.2639 C   0  0  0  0  0  0  0  0  0  0  0  0
    3.0514   -1.1714    3.1227 C   0  0  0  0  0  0  0  0  0  0  0  0
    0.2791    1.8966   -2.0888 C   0  0  0  0  0  0  0  0  0  0  0  0
    0.1254    1.5025   -3.4158 C   0  0  0  0  0  0  0  0  0  0  0  0
   -1.0401    1.8269   -4.1036 C   0  0  0  0  0  0  0  0  0  0  0  0
   -0.7314    2.6118   -1.4541 C   0  0  0  0  0  0  0  0  0  0  0  0
    1.1154    0.7847   -4.0823 C   0  0  0  0  0  0  0  0  0  0  0  0
   -2.0569    2.5427   -3.4807 C   0  0  0  0  0  0  0  0  0  0  0  0
   -1.8901    2.9299   -2.1548 C   0  0  0  0  0  0  0  0  0  0  0  0
   -1.2009    1.4371   -5.4292 C   0  0  0  0  0  0  0  0  0  0  0  0
    0.9673    0.3886   -5.4073 C   0  0  0  0  0  0  0  0  0  0  0  0
   -0.2029    0.7211   -6.0810 C   0  0  0  0  0  0  0  0  0  0  0  0
    3.5004    2.0671    0.0971 H   0  0  0  0  0  0  0  0  0  0  0  0
    2.2211   -0.2995    1.1369 H   0  0  0  0  0  0  0  0  0  0  0  0
    2.9301   -0.2098   -0.3314 H   0  0  0  0  0  0  0  0  0  0  0  0
    3.9349    0.6980    2.9547 H   0  0  0  0  0  0  0  0  0  0  0  0
    4.9371    0.3946    0.9041 H   0  0  0  0  0  0  0  0  0  0  0  0
    0.6665    1.6639    0.4858 H   0  0  0  0  0  0  0  0  0  0  0  0
    1.3497    3.0623   -0.0085 H   0  0  0  0  0  0  0  0  0  0  0  0
    5.4374   -0.6077    4.2616 H   0  0  0  0  0  0  0  0  0  0  0  0
    5.7464   -1.5473    2.9623 H   0  0  0  0  0  0  0  0  0  0  0  0
    6.2058    0.0197    2.9645 H   0  0  0  0  0  0  0  0  0  0  0  0
    2.9991   -1.1578    4.1212 H   0  0  0  0  0  0  0  0  0  0  0  0
    2.1776   -0.8725    2.7391 H   0  0  0  0  0  0  0  0  0  0  0  0
    3.2514   -2.1006    2.8120 H   0  0  0  0  0  0  0  0  0  0  0  0
    2.6500    3.0934    1.9737 H   0  0  0  0  0  0  0  0  0  0  0  0
   -0.6255    2.8952   -0.5010 H   0  0  0  0  0  0  0  0  0  0  0  0
    1.9557    0.5476   -3.5949 H   0  0  0  0  0  0  0  0  0  0  0  0
   -2.8932    2.7751   -3.9772 H   0  0  0  0  0  0  0  0  0  0  0  0
   -2.6152    3.4453   -1.6981 H   0  0  0  0  0  0  0  0  0  0  0  0
   -2.0410    1.6738   -5.9173 H   0  0  0  0  0  0  0  0  0  0  0  0
    1.6902   -0.1267   -5.8678 H   0  0  0  0  0  0  0  0  0  0  0  0
   -0.3267    0.4453   -7.0342 H   0  0  0  0  0  0  0  0  0  0  0  0
  1  7  1  0  0  0  0
  1 10  1  0  0  0  0
  2  4  1  0  0  0  0
  2 33  1  0  0  0  0
  3  5  1  0  0  0  0
  3  6  1  0  0  0  0
  3 24  1  0  0  0  0
  4  5  1  0  0  0  0
  4  7  1  0  0  0  0
  4 20  1  0  0  0  0
  5 21  1  0  0  0  0
  5 22  1  0  0  0  0
  6  8  1  0  0  0  0
  6  9  1  0  0  0  0
  6 23  1  0  0  0  0
  7 25  1  0  0  0  0
  7 26  1  0  0  0  0
  8 27  1  0  0  0  0
  8 28  1  0  0  0  0
  8 29  1  0  0  0  0
  9 30  1  0  0  0  0
  9 31  1  0  0  0  0
  9 32  1  0  0  0  0
 10 11  1  0  0  0  0
 10 13  2  0  0  0  0
 11 12  1  0  0  0  0
 11 14  2  0  0  0  0
 12 15  1  0  0  0  0
 12 17  2  0  0  0  0
 13 16  1  0  0  0  0
 13 34  1  0  0  0  0
 14 18  1  0  0  0  0
 14 35  1  0  0  0  0
 15 16  2  0  0  0  0
 15 36  1  0  0  0  0
 16 37  1  0  0  0  0
 17 19  1  0  0  0  0
 17 38  1  0  0  0  0
 18 19  2  0  0  0  0
 18 39  1  0  0  0  0
 19 40  1  0  0  0  0
M  END
$$$$
Propranolol
  unicon  03102511263D 1   1.00000     0.00000     0
unicon 1.5.0
 40 41  0  0  0  0            999 V2000
    1.3889    1.6068   -1.3746 O   0  0  0  0  0  0  0  0  0  0  0  0
    2.7841    2.1026    1.9563 O   0  0  0  0  0  0  0  0  0  0  0  0
    4.2345   -0.2507    1.2041 N   0  0  0  0  0  0  0  0  0  0  0  0
    2.7506    1.6406    0.6030 C   0  0  1  0  0  0  0  0  0  0  0  0
    2.9583    0.1243    0.6107 C   0  0  0  0  0  0  0  0  0  0  0  0
    4.1588   -0.2306    2.6586 C   0  0  0  0  0  0  0  0  0  0  0  0
    1.4257    2.0654   -0.0264 C   0  0  0  0  0  0  0  0  0  0  0  0
    5.5029   -0.6255    3.2639 C   0  0  0  0  0  0  0  0  0  0  0  0
    3.0514   -1.1714    3.1227 C   0  0  0  0  0  0  0  0  0  0  0  0
    1.0666    0.3094   -1.5705 C   0  0  0  0  0  0  0  0  0  0  0  0
    0.9977   -0.2555   -2.8417 C   0  0  0  0  0  0  0  0  0  0  0  0
    0.6623   -1.5985   -2.9851 C   0  0  0  0  0  0  0  0  0  0  0  0
    0.8011   -0.4687   -0.4482 C   0  0  0  0  0  0  0  0  0  0  0  0
    1.2582    0.4928   -3.9869 C   0  0  0  0  0  0  0  0  0  0  0  0
    0.3932   -2.3865   -1.8711 C   0  0  0  0  0  0  0  0  0  0  0  0
    0.4657   -1.8093   -0.6073 C   0  0  0  0  0  0  0  0  0  0  0  0
    0.5912   -2.1699   -4.2513 C   0  0  0  0  0  0  0  0  0  0  0  0
    1.1910   -0.0660   -5.2588 C   0  0  0  0  0  0  0  0  0  0  0  0
    0.8537   -1.4092   -5.3853 C   0  0  0  0  0  0  0  0  0  0  0  0
    3.5004    2.0671    0.0971 H   0  0  0  0  0  0  0  0  0  0  0  0
    2.2211   -0.2995    1.1369 H   0  0  0  0  0  0  0  0  0  0  0  0
    2.9301   -0.2098   -0.3314 H   0  0  0  0  0  0  0  0  0  0  0  0
    3.9349    0.6980    2.9547 H   0  0  0  0  0  0  0  0  0  0  0  0
    4.9371    0.3946    0.9041 H   0  0  0  0  0  0  0  0  0  0  0  0
    0.6665    1.6639    0.4858 H   0  0  0  0  0  0  0  0  0  0  0  0
    1.3497    3.0623   -0.0085 H   0  0  0  0  0  0  0  0  0  0  0  0
    5.4374   -0.6077    4.2616 H   0  0  0  0  0  0  0  0  0  0  0  0
    5.7464   -1.5473    2.9623 H   0  0  0  0  0  0  0  0  0  0  0  0
    6.2058    0.0197    2.9645 H   0  0  0  0  0  0  0  0  0  0  0  0
    2.9991   -1.1578    4.1212 H   0  0  0  0  0  0  0  0  0  0  0  0
    2.1776   -0.8725    2.7391 H   0  0  0  0  0  0  0  0  0  0  0  0
    3.2514   -2.1006    2.8120 H   0  0  0  0  0  0  0  0  0  0  0  0
    2.6500    3.0934    1.9737 H   0  0  0  0  0  0  0  0  0  0  0  0
    0.8509   -0.0672    0.4663 H   0  0  0  0  0  0  0  0  0  0  0  0
    1.5001    1.4585   -3.8923 H   0  0  0  0  0  0  0  0  0  0  0  0
    0.1518   -3.3512   -1.9766 H   0  0  0  0  0  0  0  0  0  0  0  0
    0.2737   -2.3673    0.2000 H   0  0  0  0  0  0  0  0  0  0  0  0
    0.3494   -3.1355   -4.3468 H   0  0  0  0  0  0  0  0  0  0  0  0
    1.3821    0.4886   -6.0687 H   0  0  0  0  0  0  0  0  0  0  0  0
    0.7999   -1.8280   -6.2917 H   0  0  0  0  0  0  0  0  0  0  0  0
  1  7  1  0  0  0  0
  1 10  1  0  0  0  0
  2  4  1  0  0  0  0
  2 33  1  0  0  0  0
  3  5  1  0  0  0  0
  3  6  1  0  0  0  0
  3 24  1  0  0  0  0
  4  5  1  0  0  0  0
  4  7  1  0  0  0  0
  4 20  1  0  0  0  0
  5 21  1  0  0  0  0
  5 22  1  0  0  0  0
  6  8  1  0  0  0  0
  6  9  1  0  0  0  0
  6 23  1  0  0  0  0
  7 25  1  0  0  0  0
  7 26  1  0  0  0  0
  8 27  1  0  0  0  0
  8 28  1  0  0  0  0
  8 29  1  0  0  0  0
  9 30  1  0  0  0  0
  9 31  1  0  0  0  0
  9 32  1  0  0  0  0
 10 11  1  0  0  0  0
 10 13  2  0  0  0  0
 11 12  1  0  0  0  0
 11 14  2  0  0  0  0
 12 15  1  0  0  0  0
 12 17  2  0  0  0  0
 13 16  1  0  0  0  0
 13 34  1  0  0  0  0
 14 18  1  0  0  0  0
 14 35  1  0  0  0  0
 15 16  2  0  0  0  0
 15 36  1  0  0  0  0
 16 37  1  0  0  0  0
 17 19  1  0  0  0  0
 17 38  1  0  0  0  0
 18 19  2  0  0  0  0
 18 39  1  0  0  0  0
 19 40  1  0  0  0  0
M  END
$$$$
Propranolol
  unicon  03102511263D 1   1.00000     0.00000     0
unicon 1.5.0
 40 41  0  0  0  0            999 V2000
    1.3889    1.6068   -1.3746 O   0  0  0  0  0  0  0  0  0  0  0  0
    2.7841    2.1026    1.9563 O   0  0  0  0  0  0  0  0  0  0  0  0
    4.2345   -0.2507    1.2041 N   0  0  0  0  0  0  0  0  0  0  0  0
    2.7506    1.6406    0.6030 C   0  0  1  0  0  0  0  0  0  0  0  0
    2.9583    0.1243    0.6107 C   0  0  0  0  0  0  0  0  0  0  0  0
    4.1588   -0.2306    2.6586 C   0  0  0  0  0  0  0  0  0  0  0  0
    1.4257    2.0654   -0.0264 C   0  0  0  0  0  0  0  0  0  0  0  0
    5.5029   -0.6255    3.2639 C   0  0  0  0  0  0  0  0  0  0  0  0
    3.0514   -1.1714    3.1227 C   0  0  0  0  0  0  0  0  0  0  0  0
    2.0595    2.3417   -2.2888 C   0  0  0  0  0  0  0  0  0  0  0  0
    2.0975    1.9956   -3.6374 C   0  0  0  0  0  0  0  0  0  0  0  0
    2.8027    2.7902   -4.5363 C   0  0  0  0  0  0  0  0  0  0  0  0
    2.7248    3.4795   -1.8437 C   0  0  0  0  0  0  0  0  0  0  0  0
    1.4425    0.8647   -4.1185 C   0  0  0  0  0  0  0  0  0  0  0  0
    3.4731    3.9293   -4.1035 C   0  0  0  0  0  0  0  0  0  0  0  0
    3.4266    4.2632   -2.7536 C   0  0  0  0  0  0  0  0  0  0  0  0
    2.8456    2.4511   -5.8846 C   0  0  0  0  0  0  0  0  0  0  0  0
    1.4770    0.5143   -5.4640 C   0  0  0  0  0  0  0  0  0  0  0  0
    2.1867    1.3183   -6.3494 C   0  0  0  0  0  0  0  0  0  0  0  0
    3.5004    2.0671    0.0971 H   0  0  0  0  0  0  0  0  0  0  0  0
    2.2211   -0.2995    1.1369 H   0  0  0  0  0  0  0  0  0  0  0  0
    2.9301   -0.2098   -0.3314 H   0  0  0  0  0  0  0  0  0  0  0  0
    3.9349    0.6980    2.9547 H   0  0  0  0  0  0  0  0  0  0  0  0
    4.9371    0.3946    0.9041 H   0  0  0  0  0  0  0  0  0  0  0  0
    0.6665    1.6639    0.4858 H   0  0  0  0  0  0  0  0  0  0  0  0
    1.3497    3.0623   -0.0085 H   0  0  0  0  0  0  0  0  0  0  0  0
    5.4374   -0.6077    4.2616 H   0  0  0  0  0  0  0  0  0  0  0  0
    5.7464   -1.5473    2.9623 H   0  0  0  0  0  0  0  0  0  0  0  0
    6.2058    0.0197    2.9645 H   0  0  0  0  0  0  0  0  0  0  0  0
    2.9991   -1.1578    4.1212 H   0  0  0  0  0  0  0  0  0  0  0  0
    2.1776   -0.8725    2.7391 H   0  0  0  0  0  0  0  0  0  0  0  0
    3.2514   -2.1006    2.8120 H   0  0  0  0  0  0  0  0  0  0  0  0
    2.6500    3.0934    1.9737 H   0  0  0  0  0  0  0  0  0  0  0  0
    2.6986    3.7322   -0.8765 H   0  0  0  0  0  0  0  0  0  0  0  0
    0.9334    0.2887   -3.4789 H   0  0  0  0  0  0  0  0  0  0  0  0
    3.9797    4.4984   -4.7511 H   0  0  0  0  0  0  0  0  0  0  0  0
    3.9057    5.0801   -2.4323 H   0  0  0  0  0  0  0  0  0  0  0  0
    3.3544    3.0266   -6.5249 H   0  0  0  0  0  0  0  0  0  0  0  0
    0.9995   -0.3019   -5.7893 H   0  0  0  0  0  0  0  0  0  0  0  0
    2.2231    1.0817   -7.3203 H   0  0  0  0  0  0  0  0  0  0  0  0
  1  7  1  0  0  0  0
  1 10  1  0  0  0  0
  2  4  1  0  0  0  0
  2 33  1  0  0  0  0
  3  5  1  0  0  0  0
  3  6  1  0  0  0  0
  3 24  1  0  0  0  0
  4  5  1  0  0  0  0
  4  7  1  0  0  0  0
  4 20  1  0  0  0  0
  5 21  1  0  0  0  0
  5 22  1  0  0  0  0
  6  8  1  0  0  0  0
  6  9  1  0  0  0  0
  6 23  1  0  0  0  0
  7 25  1  0  0  0  0
  7 26  1  0  0  0  0
  8 27  1  0  0  0  0
  8 28  1  0  0  0  0
  8 29  1  0  0  0  0
  9 30  1  0  0  0  0
  9 31  1  0  0  0  0
  9 32  1  0  0  0  0
 10 11  1  0  0  0  0
 10 13  2  0  0  0  0
 11 12  1  0  0  0  0
 11 14  2  0  0  0  0
 12 15  1  0  0  0  0
 12 17  2  0  0  0  0
 13 16  1  0  0  0  0
 13 34  1  0  0  0  0
 14 18  1  0  0  0  0
 14 35  1  0  0  0  0
 15 16  2  0  0  0  0
 15 36  1  0  0  0  0
 16 37  1  0  0  0  0
 17 19  1  0  0  0  0
 17 38  1  0  0  0  0
 18 19  2  0  0  0  0
 18 39  1  0  0  0  0
 19 40  1  0  0  0  0
M  END
$$$$
Propranolol
  unicon  03102511263D 1   1.00000     0.00000     0
unicon 1.5.0
 40 41  0  0  0  0            999 V2000
    1.3339    3.4865    0.0098 O   0  0  0  0  0  0  0  0  0  0  0  0
    2.7841    2.1026    1.9563 O   0  0  0  0  0  0  0  0  0  0  0  0
    4.2345   -0.2507    1.2041 N   0  0  0  0  0  0  0  0  0  0  0  0
    2.7506    1.6406    0.6030 C   0  0  1  0  0  0  0  0  0  0  0  0
    2.9583    0.1243    0.6107 C   0  0  0  0  0  0  0  0  0  0  0  0
    4.1588   -0.2306    2.6586 C   0  0  0  0  0  0  0  0  0  0  0  0
    1.4257    2.0654   -0.0264 C   0  0  0  0  0  0  0  0  0  0  0  0
    5.5029   -0.6255    3.2639 C   0  0  0  0  0  0  0  0  0  0  0  0
    3.0514   -1.1714    3.1227 C   0  0  0  0  0  0  0  0  0  0  0  0
    0.2163    4.0404   -0.5098 C   0  0  0  0  0  0  0  0  0  0  0  0
    0.0109    5.4177   -0.5322 C   0  0  0  0  0  0  0  0  0  0  0  0
   -1.1588    5.9342   -1.0816 C   0  0  0  0  0  0  0  0  0  0  0  0
   -0.7460    3.1849   -1.0365 C   0  0  0  0  0  0  0  0  0  0  0  0
    0.9528    6.3037   -0.0152 C   0  0  0  0  0  0  0  0  0  0  0  0
   -2.1291    5.0894   -1.6099 C   0  0  0  0  0  0  0  0  0  0  0  0
   -1.9107    3.7157   -1.5811 C   0  0  0  0  0  0  0  0  0  0  0  0
   -1.3714    7.3086   -1.1074 C   0  0  0  0  0  0  0  0  0  0  0  0
    0.7530    7.6800   -0.0349 C   0  0  0  0  0  0  0  0  0  0  0  0
   -0.4214    8.1803   -0.5867 C   0  0  0  0  0  0  0  0  0  0  0  0
    3.5004    2.0671    0.0971 H   0  0  0  0  0  0  0  0  0  0  0  0
    2.2211   -0.2995    1.1369 H   0  0  0  0  0  0  0  0  0  0  0  0
    2.9301   -0.2098   -0.3314 H   0  0  0  0  0  0  0  0  0  0  0  0
    3.9349    0.6980    2.9547 H   0  0  0  0  0  0  0  0  0  0  0  0
    4.9371    0.3946    0.9041 H   0  0  0  0  0  0  0  0  0  0  0  0
    1.3881    1.7504   -0.9748 H   0  0  0  0  0  0  0  0  0  0  0  0
    0.6664    1.6665    0.4877 H   0  0  0  0  0  0  0  0  0  0  0  0
    5.4374   -0.6077    4.2616 H   0  0  0  0  0  0  0  0  0  0  0  0
    5.7464   -1.5473    2.9623 H   0  0  0  0  0  0  0  0  0  0  0  0
    6.2058    0.0197    2.9645 H   0  0  0  0  0  0  0  0  0  0  0  0
    2.9991   -1.1578    4.1212 H   0  0  0  0  0  0  0  0  0  0  0  0
    2.1776   -0.8725    2.7391 H   0  0  0  0  0  0  0  0  0  0  0  0
    3.2514   -2.1006    2.8120 H   0  0  0  0  0  0  0  0  0  0  0  0
    2.6500    3.0934    1.9737 H   0  0  0  0  0  0  0  0  0  0  0  0
   -0.6015    2.1955   -1.0237 H   0  0  0  0  0  0  0  0  0  0  0  0
    1.7960    5.9404    0.3811 H   0  0  0  0  0  0  0  0  0  0  0  0
   -2.9690    5.4629   -2.0036 H   0  0  0  0  0  0  0  0  0  0  0  0
   -2.6025    3.0997   -1.9580 H   0  0  0  0  0  0  0  0  0  0  0  0
   -2.2143    7.6727   -1.5036 H   0  0  0  0  0  0  0  0  0  0  0  0
    1.4421    8.2993    0.3413 H   0  0  0  0  0  0  0  0  0  0  0  0
   -0.5826    9.1669   -0.6090 H   0  0  0  0  0  0  0  0  0  0  0  0
  1  7  1  0  0  0  0
  1 10  1  0  0  0  0
  2  4  1  0  0  0  0
  2 33  1  0  0  0  0
  3  5  1  0  0  0  0
  3  6  1  0  0  0  0
  3 24  1  0  0  0  0
  4  5  1  0  0  0  0
  4  7  1  0  0  0  0
  4 20  1  0  0  0  0
  5 21  1  0  0  0  0
  5 22  1  0  0  0  0
  6  8  1  0  0  0  0
  6  9  1  0  0  0  0
  6 23  1  0  0  0  0
  7 25  1  0  0  0  0
  7 26  1  0  0  0  0
  8 27  1  0  0  0  0
  8 28  1  0  0  0  0
  8 29  1  0  0  0  0
  9 30  1  0  0  0  0
  9 31  1  0  0  0  0
  9 32  1  0  0  0  0
 10 11  1  0  0  0  0
 10 13  2  0  0  0  0
 11 12  1  0  0  0  0
 11 14  2  0  0  0  0
 12 15  1  0  0  0  0
 12 17  2  0  0  0  0
 13 16  1  0  0  0  0
 13 34  1  0  0  0  0
 14 18  1  0  0  0  0
 14 35  1  0  0  0  0
 15 16  2  0  0  0  0
 15 36  1  0  0  0  0
 16 37  1  0  0  0  0
 17 19  1  0  0  0  0
 17 38  1  0  0  0  0
 18 19  2  0  0  0  0
 18 39  1  0  0  0  0
 19 40  1  0  0  0  0
M  END
$$$$
Propranolol
  unicon  03102511263D 1   1.00000     0.00000     0
unicon 1.5.0
 40 41  0  0  0  0            999 V2000
    1.3339    3.4865    0.0098 O   0  0  0  0  0  0  0  0  0  0  0  0
    2.7841    2.1026    1.9563 O   0  0  0  0  0  0  0  0  0  0  0  0
    4.2345   -0.2507    1.2041 N   0  0  0  0  0  0  0  0  0  0  0  0
    2.7506    1.6406    0.6030 C   0  0  1  0  0  0  0  0  0  0  0  0
    2.9583    0.1243    0.6107 C   0  0  0  0  0  0  0  0  0  0  0  0
    4.1588   -0.2306    2.6586 C   0  0  0  0  0  0  0  0  0  0  0  0
    1.4257    2.0654   -0.0264 C   0  0  0  0  0  0  0  0  0  0  0  0
    5.5029   -0.6255    3.2639 C   0  0  0  0  0  0  0  0  0  0  0  0
    3.0514   -1.1714    3.1227 C   0  0  0  0  0  0  0  0  0  0  0  0
    2.0060    4.1671   -0.9444 C   0  0  0  0  0  0  0  0  0  0  0  0
    1.9933    5.5581   -1.0135 C   0  0  0  0  0  0  0  0  0  0  0  0
    2.7054    6.2078   -2.0172 C   0  0  0  0  0  0  0  0  0  0  0  0
    2.7301    3.4310   -1.8768 C   0  0  0  0  0  0  0  0  0  0  0  0
    1.2807    6.3270   -0.0967 C   0  0  0  0  0  0  0  0  0  0  0  0
    3.4319    5.4831   -2.9561 C   0  0  0  0  0  0  0  0  0  0  0  0
    3.4359    4.0942   -2.8751 C   0  0  0  0  0  0  0  0  0  0  0  0
    2.6974    7.5967   -2.0930 C   0  0  0  0  0  0  0  0  0  0  0  0
    1.2644    7.7163   -0.1608 C   0  0  0  0  0  0  0  0  0  0  0  0
    1.9805    8.3504   -1.1702 C   0  0  0  0  0  0  0  0  0  0  0  0
    3.5004    2.0671    0.0971 H   0  0  0  0  0  0  0  0  0  0  0  0
    2.2211   -0.2995    1.1369 H   0  0  0  0  0  0  0  0  0  0  0  0
    2.9301   -0.2098   -0.3314 H   0  0  0  0  0  0  0  0  0  0  0  0
    3.9349    0.6980    2.9547 H   0  0  0  0  0  0  0  0  0  0  0  0
    4.9371    0.3946    0.9041 H   0  0  0  0  0  0  0  0  0  0  0  0
    1.3881    1.7504   -0.9748 H   0  0  0  0  0  0  0  0  0  0  0  0
    0.6664    1.6665    0.4877 H   0  0  0  0  0  0  0  0  0  0  0  0
    5.4374   -0.6077    4.2616 H   0  0  0  0  0  0  0  0  0  0  0  0
    5.7464   -1.5473    2.9623 H   0  0  0  0  0  0  0  0  0  0  0  0
    6.2058    0.0197    2.9645 H   0  0  0  0  0  0  0  0  0  0  0  0
    2.9991   -1.1578    4.1212 H   0  0  0  0  0  0  0  0  0  0  0  0
    2.1776   -0.8725    2.7391 H   0  0  0  0  0  0  0  0  0  0  0  0
    3.2514   -2.1006    2.8120 H   0  0  0  0  0  0  0  0  0  0  0  0
    2.6500    3.0934    1.9737 H   0  0  0  0  0  0  0  0  0  0  0  0
    2.7429    2.4322   -1.8296 H   0  0  0  0  0  0  0  0  0  0  0  0
    0.7666    5.8676    0.6277 H   0  0  0  0  0  0  0  0  0  0  0  0
    3.9424    5.9522   -3.6767 H   0  0  0  0  0  0  0  0  0  0  0  0
    3.9548    3.5640   -3.5457 H   0  0  0  0  0  0  0  0  0  0  0  0
    3.2113    8.0569   -2.8170 H   0  0  0  0  0  0  0  0  0  0  0  0
    0.7465    8.2501    0.5076 H   0  0  0  0  0  0  0  0  0  0  0  0
    1.9799    9.3484   -1.2324 H   0  0  0  0  0  0  0  0  0  0  0  0
  1  7  1  0  0  0  0
  1 10  1  0  0  0  0
  2  4  1  0  0  0  0
  2 33  1  0  0  0  0
  3  5  1  0  0  0  0
  3  6  1  0  0  0  0
  3 24  1  0  0  0  0
  4  5  1  0  0  0  0
  4  7  1  0  0  0  0
  4 20  1  0  0  0  0
  5 21  1  0  0  0  0
  5 22  1  0  0  0  0
  6  8  1  0  0  0  0
  6  9  1  0  0  0  0
  6 23  1  0  0  0  0
  7 25  1  0  0  0  0
  7 26  1  0  0  0  0
  8 27  1  0  0  0  0
  8 28  1  0  0  0  0
  8 29  1  0  0  0  0
  9 30  1  0  0  0  0
  9 31  1  0  0  0  0
  9 32  1  0  0  0  0
 10 11  1  0  0  0  0
 10 13  2  0  0  0  0
 11 12  1  0  0  0  0
 11 14  2  0  0  0  0
 12 15  1  0  0  0  0
 12 17  2  0  0  0  0
 13 16  1  0  0  0  0
 13 34  1  0  0  0  0
 14 18  1  0  0  0  0
 14 35  1  0  0  0  0
 15 16  2  0  0  0  0
 15 36  1  0  0  0  0
 16 37  1  0  0  0  0
 17 19  1  0  0  0  0
 17 38  1  0  0  0  0
 18 19  2  0  0  0  0
 18 39  1  0  0  0  0
 19 40  1  0  0  0  0
M  END
$$$$
Propranolol
  unicon  03102511263D 1   1.00000     0.00000     0
unicon 1.5.0
 40 41  0  0  0  0            999 V2000
    1.3339    3.4865    0.0098 O   0  0  0  0  0  0  0  0  0  0  0  0
    2.7841    2.1026    1.9563 O   0  0  0  0  0  0  0  0  0  0  0  0
    4.2345   -0.2507    1.2041 N   0  0  0  0  0  0  0  0  0  0  0  0
    2.7506    1.6406    0.6030 C   0  0  1  0  0  0  0  0  0  0  0  0
    2.9583    0.1243    0.6107 C   0  0  0  0  0  0  0  0  0  0  0  0
    4.1588   -0.2306    2.6586 C   0  0  0  0  0  0  0  0  0  0  0  0
    1.4257    2.0654   -0.0264 C   0  0  0  0  0  0  0  0  0  0  0  0
    5.5029   -0.6255    3.2639 C   0  0  0  0  0  0  0  0  0  0  0  0
    3.0514   -1.1714    3.1227 C   0  0  0  0  0  0  0  0  0  0  0  0
    0.9572    4.0451    1.1810 C   0  0  0  0  0  0  0  0  0  0  0  0
    0.8315    5.4230    1.3407 C   0  0  0  0  0  0  0  0  0  0  0  0
    0.4383    5.9443    2.5697 C   0  0  0  0  0  0  0  0  0  0  0  0
    0.6893    3.1939    2.2483 C   0  0  0  0  0  0  0  0  0  0  0  0
    1.0904    6.3047    0.2943 C   0  0  0  0  0  0  0  0  0  0  0  0
    0.1690    5.1039    3.6446 C   0  0  0  0  0  0  0  0  0  0  0  0
    0.2985    3.7296    3.4710 C   0  0  0  0  0  0  0  0  0  0  0  0
    0.3107    7.3193    2.7371 C   0  0  0  0  0  0  0  0  0  0  0  0
    0.9664    7.6815    0.4480 C   0  0  0  0  0  0  0  0  0  0  0  0
    0.5733    8.1867    1.6825 C   0  0  0  0  0  0  0  0  0  0  0  0
    3.5004    2.0671    0.0971 H   0  0  0  0  0  0  0  0  0  0  0  0
    2.2211   -0.2995    1.1369 H   0  0  0  0  0  0  0  0  0  0  0  0
    2.9301   -0.2098   -0.3314 H   0  0  0  0  0  0  0  0  0  0  0  0
    3.9349    0.6980    2.9547 H   0  0  0  0  0  0  0  0  0  0  0  0
    4.9371    0.3946    0.9041 H   0  0  0  0  0  0  0  0  0  0  0  0
    1.3881    1.7504   -0.9748 H   0  0  0  0  0  0  0  0  0  0  0  0
    0.6664    1.6665    0.4877 H   0  0  0  0  0  0  0  0  0  0  0  0
    5.4374   -0.6077    4.2616 H   0  0  0  0  0  0  0  0  0  0  0  0
    5.7464   -1.5473    2.9623 H   0  0  0  0  0  0  0  0  0  0  0  0
    6.2058    0.0197    2.9645 H   0  0  0  0  0  0  0  0  0  0  0  0
    2.9991   -1.1578    4.1212 H   0  0  0  0  0  0  0  0  0  0  0  0
    2.1776   -0.8725    2.7391 H   0  0  0  0  0  0  0  0  0  0  0  0
    3.2514   -2.1006    2.8120 H   0  0  0  0  0  0  0  0  0  0  0  0
    2.6500    3.0934    1.9737 H   0  0  0  0  0  0  0  0  0  0  0  0
    0.7769    2.2040    2.1372 H   0  0  0  0  0  0  0  0  0  0  0  0
    1.3732    5.9379   -0.5920 H   0  0  0  0  0  0  0  0  0  0  0  0
   -0.1129    5.4809    4.5269 H   0  0  0  0  0  0  0  0  0  0  0  0
    0.1075    3.1169    4.2379 H   0  0  0  0  0  0  0  0  0  0  0  0
    0.0278    7.6869    3.6230 H   0  0  0  0  0  0  0  0  0  0  0  0
    1.1567    8.2976   -0.3163 H   0  0  0  0  0  0  0  0  0  0  0  0
    0.4794    9.1738    1.8118 H   0  0  0  0  0  0  0  0  0  0  0  0
  1  7  1  0  0  0  0
  1 10  1  0  0  0  0
  2  4  1  0  0  0  0
  2 33  1  0  0  0  0
  3  5  1  0  0  0  0
  3  6  1  0  0  0  0
  3 24  1  0  0  0  0
  4  5  1  0  0  0  0
  4  7  1  0  0  0  0
  4 20  1  0  0  0  0
  5 21  1  0  0  0  0
  5 22  1  0  0  0  0
  6  8  1  0  0  0  0
  6  9  1  0  0  0  0
  6 23  1  0  0  0  0
  7 25  1  0  0  0  0
  7 26  1  0  0  0  0
  8 27  1  0  0  0  0
  8 28  1  0  0  0  0
  8 29  1  0  0  0  0
  9 30  1  0  0  0  0
  9 31  1  0  0  0  0
  9 32  1  0  0  0  0
 10 11  1  0  0  0  0
 10 13  2  0  0  0  0
 11 12  1  0  0  0  0
 11 14  2  0  0  0  0
 12 15  1  0  0  0  0
 12 17  2  0  0  0  0
 13 16  1  0  0  0  0
 13 34  1  0  0  0  0
 14 18  1  0  0  0  0
 14 35  1  0  0  0  0
 15 16  2  0  0  0  0
 15 36  1  0  0  0  0
 16 37  1  0  0  0  0
 17 19  1  0  0  0  0
 17 38  1  0  0  0  0
 18 19  2  0  0  0  0
 18 39  1  0  0  0  0
 19 40  1  0  0  0  0
M  END
$$$$
Propranolol
  unicon  03102511263D 1   1.00000     0.00000     0
unicon 1.5.0
 40 41  0  0  0  0            999 V2000
    0.4307    2.1241    0.9914 O   0  0  0  0  0  0  0  0  0  0  0  0
    2.7841    2.1026    1.9563 O   0  0  0  0  0  0  0  0  0  0  0  0
    4.2345   -0.2507    1.2041 N   0  0  0  0  0  0  0  0  0  0  0  0
    2.7506    1.6406    0.6030 C   0  0  1  0  0  0  0  0  0  0  0  0
    2.9583    0.1243    0.6107 C   0  0  0  0  0  0  0  0  0  0  0  0
    4.6258   -1.5925    0.7937 C   0  0  0  0  0  0  0  0  0  0  0  0
    1.4257    2.0654   -0.0264 C   0  0  0  0  0  0  0  0  0  0  0  0
    5.0039   -1.6043   -0.6848 C   0  0  0  0  0  0  0  0  0  0  0  0
    3.4830   -2.5631    1.0747 C   0  0  0  0  0  0  0  0  0  0  0  0
   -0.1248    0.9526    1.3715 C   0  0  0  0  0  0  0  0  0  0  0  0
   -1.1072    0.8808    2.3562 C   0  0  0  0  0  0  0  0  0  0  0  0
   -1.6463   -0.3531    2.7075 C   0  0  0  0  0  0  0  0  0  0  0  0
    0.3145   -0.2074    0.7415 C   0  0  0  0  0  0  0  0  0  0  0  0
   -1.5716    2.0212    3.0069 C   0  0  0  0  0  0  0  0  0  0  0  0
   -1.2145   -1.5200    2.0861 C   0  0  0  0  0  0  0  0  0  0  0  0
   -0.2326   -1.4337    1.1042 C   0  0  0  0  0  0  0  0  0  0  0  0
   -2.6276   -0.4330    3.6901 C   0  0  0  0  0  0  0  0  0  0  0  0
   -2.5525    1.9556    3.9908 C   0  0  0  0  0  0  0  0  0  0  0  0
   -3.0806    0.7149    4.3310 C   0  0  0  0  0  0  0  0  0  0  0  0
    3.5004    2.0671    0.0971 H   0  0  0  0  0  0  0  0  0  0  0  0
    2.2211   -0.2995    1.1369 H   0  0  0  0  0  0  0  0  0  0  0  0
    2.9301   -0.2098   -0.3314 H   0  0  0  0  0  0  0  0  0  0  0  0
    5.4222   -1.8718    1.3300 H   0  0  0  0  0  0  0  0  0  0  0  0
    4.1525   -0.2242    2.2004 H   0  0  0  0  0  0  0  0  0  0  0  0
    1.5279    2.9661   -0.4486 H   0  0  0  0  0  0  0  0  0  0  0  0
    1.1557    1.3998   -0.7222 H   0  0  0  0  0  0  0  0  0  0  0  0
    5.2702   -2.5300   -0.9533 H   0  0  0  0  0  0  0  0  0  0  0  0
    4.2198   -1.3110   -1.2317 H   0  0  0  0  0  0  0  0  0  0  0  0
    5.7696   -0.9796   -0.8380 H   0  0  0  0  0  0  0  0  0  0  0  0
    3.7513   -3.4843    0.7931 H   0  0  0  0  0  0  0  0  0  0  0  0
    3.2765   -2.5605    2.0531 H   0  0  0  0  0  0  0  0  0  0  0  0
    2.6722   -2.2806    0.5621 H   0  0  0  0  0  0  0  0  0  0  0  0
    2.6500    3.0934    1.9737 H   0  0  0  0  0  0  0  0  0  0  0  0
    1.0186   -0.1599    0.0330 H   0  0  0  0  0  0  0  0  0  0  0  0
   -1.1894    2.9117    2.7599 H   0  0  0  0  0  0  0  0  0  0  0  0
   -1.6029   -2.4057    2.3406 H   0  0  0  0  0  0  0  0  0  0  0  0
    0.0850   -2.2670    0.6517 H   0  0  0  0  0  0  0  0  0  0  0  0
   -3.0104   -1.3230    3.9376 H   0  0  0  0  0  0  0  0  0  0  0  0
   -2.8726    2.7865    4.4459 H   0  0  0  0  0  0  0  0  0  0  0  0
   -3.7860    0.6482    5.0366 H   0  0  0  0  0  0  0  0  0  0  0  0
  1  7  1  0  0  0  0
  1 10  1  0  0  0  0
  2  4  1  0  0  0  0
  2 33  1  0  0  0  0
  3  5  1  0  0  0  0
  3  6  1  0  0  0  0
  3 24  1  0  0  0  0
  4  5  1  0  0  0  0
  4  7  1  0  0  0  0
  4 20  1  0  0  0  0
  5 21  1  0  0  0  0
  5 22  1  0  0  0  0
  6  8  1  0  0  0  0
  6  9  1  0  0  0  0
  6 23  1  0  0  0  0
  7 25  1  0  0  0  0
  7 26  1  0  0  0  0
  8 27  1  0  0  0  0
  8 28  1  0  0  0  0
  8 29  1  0  0  0  0
  9 30  1  0  0  0  0
  9 31  1  0  0  0  0
  9 32  1  0  0  0  0
 10 11  1  0  0  0  0
 10 13  2  0  0  0  0
 11 12  1  0  0  0  0
 11 14  2  0  0  0  0
 12 15  1  0  0  0  0
 12 17  2  0  0  0  0
 13 16  1  0  0  0  0
 13 34  1  0  0  0  0
 14 18  1  0  0  0  0
 14 35  1  0  0  0  0
 15 16  2  0  0  0  0
 15 36  1  0  0  0  0
 16 37  1  0  0  0  0
 17 19  1  0  0  0  0
 17 38  1  0  0  0  0
 18 19  2  0  0  0  0
 18 39  1  0  0  0  0
 19 40  1  0  0  0  0
M  END
$$$$
Propranolol
  unicon  03102511263D 1   1.00000     0.00000     0
unicon 1.5.0
 40 41  0  0  0  0            999 V2000
    0.3569    1.4868    0.7167 O   0  0  0  0  0  0  0  0  0  0  0  0
    2.7841    2.1026    1.9563 O   0  0  0  0  0  0  0  0  0  0  0  0
    4.2345   -0.2507    1.2041 N   0  0  0  0  0  0  0  0  0  0  0  0
    2.7506    1.6406    0.6030 C   0  0  1  0  0  0  0  0  0  0  0  0
    2.9583    0.1243    0.6107 C   0  0  0  0  0  0  0  0  0  0  0  0
    4.6258   -1.5925    0.7937 C   0  0  0  0  0  0  0  0  0  0  0  0
    1.4257    2.0654   -0.0264 C   0  0  0  0  0  0  0  0  0  0  0  0
    3.7138   -2.6308    1.4411 C   0  0  0  0  0  0  0  0  0  0  0  0
    6.0843   -1.8337    1.1699 C   0  0  0  0  0  0  0  0  0  0  0  0
   -0.8979    1.7597    0.2964 C   0  0  0  0  0  0  0  0  0  0  0  0
   -2.0240    1.2525    0.9402 C   0  0  0  0  0  0  0  0  0  0  0  0
   -3.2936    1.5675    0.4650 C   0  0  0  0  0  0  0  0  0  0  0  0
   -1.0439    2.5793   -0.8182 C   0  0  0  0  0  0  0  0  0  0  0  0
   -1.9157    0.4302    2.0589 C   0  0  0  0  0  0  0  0  0  0  0  0
   -3.4527    2.3846   -0.6492 C   0  0  0  0  0  0  0  0  0  0  0  0
   -2.3191    2.8843   -1.2825 C   0  0  0  0  0  0  0  0  0  0  0  0
   -4.4231    1.0647    1.1023 C   0  0  0  0  0  0  0  0  0  0  0  0
   -3.0367   -0.0789    2.7058 C   0  0  0  0  0  0  0  0  0  0  0  0
   -4.2982    0.2444    2.2181 C   0  0  0  0  0  0  0  0  0  0  0  0
    3.5004    2.0671    0.0971 H   0  0  0  0  0  0  0  0  0  0  0  0
    2.2211   -0.2995    1.1369 H   0  0  0  0  0  0  0  0  0  0  0  0
    2.9301   -0.2098   -0.3314 H   0  0  0  0  0  0  0  0  0  0  0  0
    4.5357   -1.6623   -0.1998 H   0  0  0  0  0  0  0  0  0  0  0  0
    4.1525   -0.2242    2.2004 H   0  0  0  0  0  0  0  0  0  0  0  0
    1.3483    3.0622   -0.0056 H   0  0  0  0  0  0  0  0  0  0  0  0
    1.3867    1.7477   -0.9738 H   0  0  0  0  0  0  0  0  0  0  0  0
    3.9928   -3.5463    1.1515 H   0  0  0  0  0  0  0  0  0  0  0  0
    3.7826   -2.5606    2.4363 H   0  0  0  0  0  0  0  0  0  0  0  0
    2.7685   -2.4658    1.1599 H   0  0  0  0  0  0  0  0  0  0  0  0
    6.3532   -2.7547    0.8882 H   0  0  0  0  0  0  0  0  0  0  0  0
    6.6632   -1.1616    0.7081 H   0  0  0  0  0  0  0  0  0  0  0  0
    6.1926   -1.7428    2.1598 H   0  0  0  0  0  0  0  0  0  0  0  0
    2.6500    3.0934    1.9737 H   0  0  0  0  0  0  0  0  0  0  0  0
   -0.2378    2.9466   -1.2823 H   0  0  0  0  0  0  0  0  0  0  0  0
   -1.0069    0.1995    2.4066 H   0  0  0  0  0  0  0  0  0  0  0  0
   -4.3660    2.6090   -0.9892 H   0  0  0  0  0  0  0  0  0  0  0  0
   -2.4229    3.4723   -2.0846 H   0  0  0  0  0  0  0  0  0  0  0  0
   -5.3322    1.2951    0.7553 H   0  0  0  0  0  0  0  0  0  0  0  0
   -2.9373   -0.6676    3.5081 H   0  0  0  0  0  0  0  0  0  0  0  0
   -5.1156   -0.1129    2.6699 H   0  0  0  0  0  0  0  0  0  0  0  0
  1  7  1  0  0  0  0
  1 10  1  0  0  0  0
  2  4  1  0  0  0  0
  2 33  1  0  0  0  0
  3  5  1  0  0  0  0
  3  6  1  0  0  0  0
  3 24  1  0  0  0  0
  4  5  1  0  0  0  0
  4  7  1  0  0  0  0
  4 20  1  0  0  0  0
  5 21  1  0  0  0  0
  5 22  1  0  0  0  0
  6  8  1  0  0  0  0
  6  9  1  0  0  0  0
  6 23  1  0  0  0  0
  7 25  1  0  0  0  0
  7 26  1  0  0  0  0
  8 27  1  0  0  0  0
  8 28  1  0  0  0  0
  8 29  1  0  0  0  0
  9 30  1  0  0  0  0
  9 31  1  0  0  0  0
  9 32  1  0  0  0  0
 10 11  1  0  0  0  0
 10 13  2  0  0  0  0
 11 12  1  0  0  0  0
 11 14  2  0  0  0  0
 12 15  1  0  0  0  0
 12 17  2  0  0  0  0
 13 16  1  0  0  0  0
 13 34  1  0  0  0  0
 14 18  1  0  0  0  0
 14 35  1  0  0  0  0
 15 16  2  0  0  0  0
 15 36  1  0  0  0  0
 16 37  1  0  0  0  0
 17 19  1  0  0  0  0
 17 38  1  0  0  0  0
 18 19  2  0  0  0  0
 18 39  1  0  0  0  0
 19 40  1  0  0  0  0
M  END
$$$$
Propranolol
  unicon  03102511263D 1   1.00000     0.00000     0
unicon 1.5.0
 40 41  0  0  0  0            999 V2000
    0.3569    1.4868    0.7167 O   0  0  0  0  0  0  0  0  0  0  0  0
    2.7841    2.1026    1.9563 O   0  0  0  0  0  0  0  0  0  0  0  0
    4.2345   -0.2507    1.2041 N   0  0  0  0  0  0  0  0  0  0  0  0
    2.7506    1.6406    0.6030 C   0  0  1  0  0  0  0  0  0  0  0  0
    2.9583    0.1243    0.6107 C   0  0  0  0  0  0  0  0  0  0  0  0
    4.6258   -1.5925    0.7937 C   0  0  0  0  0  0  0  0  0  0  0  0
    1.4257    2.0654   -0.0264 C   0  0  0  0  0  0  0  0  0  0  0  0
    3.7138   -2.6308    1.4411 C   0  0  0  0  0  0  0  0  0  0  0  0
    6.0843   -1.8337    1.1699 C   0  0  0  0  0  0  0  0  0  0  0  0
    0.0085    2.1032    1.8675 C   0  0  0  0  0  0  0  0  0  0  0  0
   -1.0201    1.6330    2.6804 C   0  0  0  0  0  0  0  0  0  0  0  0
   -1.3357    2.3067    3.8565 C   0  0  0  0  0  0  0  0  0  0  0  0
    0.7177    3.2430    2.2324 C   0  0  0  0  0  0  0  0  0  0  0  0
   -1.7502    0.4949    2.3472 C   0  0  0  0  0  0  0  0  0  0  0  0
   -0.6351    3.4482    4.2315 C   0  0  0  0  0  0  0  0  0  0  0  0
    0.3900    3.9066    3.4101 C   0  0  0  0  0  0  0  0  0  0  0  0
   -2.3617    1.8436    4.6736 C   0  0  0  0  0  0  0  0  0  0  0  0
   -2.7783    0.0208    3.1552 C   0  0  0  0  0  0  0  0  0  0  0  0
   -3.0819    0.7058    4.3267 C   0  0  0  0  0  0  0  0  0  0  0  0
    3.5004    2.0671    0.0971 H   0  0  0  0  0  0  0  0  0  0  0  0
    2.2211   -0.2995    1.1369 H   0  0  0  0  0  0  0  0  0  0  0  0
    2.9301   -0.2098   -0.3314 H   0  0  0  0  0  0  0  0  0  0  0  0
    4.5357   -1.6623   -0.1998 H   0  0  0  0  0  0  0  0  0  0  0  0
    4.1525   -0.2242    2.2004 H   0  0  0  0  0  0  0  0  0  0  0  0
    1.3483    3.0622   -0.0056 H   0  0  0  0  0  0  0  0  0  0  0  0
    1.3867    1.7477   -0.9738 H   0  0  0  0  0  0  0  0  0  0  0  0
    3.9928   -3.5463    1.1515 H   0  0  0  0  0  0  0  0  0  0  0  0
    3.7826   -2.5606    2.4363 H   0  0  0  0  0  0  0  0  0  0  0  0
    2.7685   -2.4658    1.1599 H   0  0  0  0  0  0  0  0  0  0  0  0
    6.3532   -2.7547    0.8882 H   0  0  0  0  0  0  0  0  0  0  0  0
    6.6632   -1.1616    0.7081 H   0  0  0  0  0  0  0  0  0  0  0  0
    6.1926   -1.7428    2.1598 H   0  0  0  0  0  0  0  0  0  0  0  0
    2.6500    3.0934    1.9737 H   0  0  0  0  0  0  0  0  0  0  0  0
    1.4579    3.5829    1.6521 H   0  0  0  0  0  0  0  0  0  0  0  0
   -1.5293    0.0051    1.5038 H   0  0  0  0  0  0  0  0  0  0  0  0
   -0.8641    3.9309    5.0768 H   0  0  0  0  0  0  0  0  0  0  0  0
    0.8995    4.7267    3.6706 H   0  0  0  0  0  0  0  0  0  0  0  0
   -2.5832    2.3328    5.5172 H   0  0  0  0  0  0  0  0  0  0  0  0
   -3.2904   -0.7987    2.8981 H   0  0  0  0  0  0  0  0  0  0  0  0
   -3.8183    0.3800    4.9198 H   0  0  0  0  0  0  0  0  0  0  0  0
  1  7  1  0  0  0  0
  1 10  1  0  0  0  0
  2  4  1  0  0  0  0
  2 33  1  0  0  0  0
  3  5  1  0  0  0  0
  3  6  1  0  0  0  0
  3 24  1  0  0  0  0
  4  5  1  0  0  0  0
  4  7  1  0  0  0  0
  4 20  1  0  0  0  0
  5 21  1  0  0  0  0
  5 22  1  0  0  0  0
  6  8  1  0  0  0  0
  6  9  1  0  0  0  0
  6 23  1  0  0  0  0
  7 25  1  0  0  0  0
  7 26  1  0  0  0  0
  8 27  1  0  0  0  0
  8 28  1  0  0  0  0
  8 29  1  0  0  0  0
  9 30  1  0  0  0  0
  9 31  1  0  0  0  0
  9 32  1  0  0  0  0
 10 11  1  0  0  0  0
 10 13  2  0  0  0  0
 11 12  1  0  0  0  0
 11 14  2  0  0  0  0
 12 15  1  0  0  0  0
 12 17  2  0  0  0  0
 13 16  1  0  0  0  0
 13 34  1  0  0  0  0
 14 18  1  0  0  0  0
 14 35  1  0  0  0  0
 15 16  2  0  0  0  0
 15 36  1  0  0  0  0
 16 37  1  0  0  0  0
 17 19  1  0  0  0  0
 17 38  1  0  0  0  0
 18 19  2  0  0  0  0
 18 39  1  0  0  0  0
 19 40  1  0  0  0  0
M  END
$$$$
Propranolol
  unicon  03102511263D 1   1.00000     0.00000     0
unicon 1.5.0
 40 41  0  0  0  0            999 V2000
    1.3889    1.6068   -1.3746 O   0  0  0  0  0  0  0  0  0  0  0  0
    2.7841    2.1026    1.9563 O   0  0  0  0  0  0  0  0  0  0  0  0
    4.2345   -0.2507    1.2041 N   0  0  0  0  0  0  0  0  0  0  0  0
    2.7506    1.6406    0.6030 C   0  0  1  0  0  0  0  0  0  0  0  0
    2.9583    0.1243    0.6107 C   0  0  0  0  0  0  0  0  0  0  0  0
    4.6258   -1.5925    0.7937 C   0  0  0  0  0  0  0  0  0  0  0  0
    1.4257    2.0654   -0.0264 C   0  0  0  0  0  0  0  0  0  0  0  0
    3.7138   -2.6308    1.4411 C   0  0  0  0  0  0  0  0  0  0  0  0
    6.0843   -1.8337    1.1699 C   0  0  0  0  0  0  0  0  0  0  0  0
    0.2791    1.8966   -2.0888 C   0  0  0  0  0  0  0  0  0  0  0  0
    0.1254    1.5025   -3.4158 C   0  0  0  0  0  0  0  0  0  0  0  0
   -1.0401    1.8269   -4.1036 C   0  0  0  0  0  0  0  0  0  0  0  0
   -0.7314    2.6118   -1.4541 C   0  0  0  0  0  0  0  0  0  0  0  0
    1.1154    0.7847   -4.0823 C   0  0  0  0  0  0  0  0  0  0  0  0
   -2.0569    2.5427   -3.4807 C   0  0  0  0  0  0  0  0  0  0  0  0
   -1.8901    2.9299   -2.1548 C   0  0  0  0  0  0  0  0  0  0  0  0
   -1.2009    1.4371   -5.4292 C   0  0  0  0  0  0  0  0  0  0  0  0
    0.9673    0.3886   -5.4073 C   0  0  0  0  0  0  0  0  0  0  0  0
   -0.2029    0.7211   -6.0810 C   0  0  0  0  0  0  0  0  0  0  0  0
    3.5004    2.0671    0.0971 H   0  0  0  0  0  0  0  0  0  0  0  0
    2.2211   -0.2995    1.1369 H   0  0  0  0  0  0  0  0  0  0  0  0
    2.9301   -0.2098   -0.3314 H   0  0  0  0  0  0  0  0  0  0  0  0
    4.5357   -1.6623   -0.1998 H   0  0  0  0  0  0  0  0  0  0  0  0
    4.1525   -0.2242    2.2004 H   0  0  0  0  0  0  0  0  0  0  0  0
    0.6665    1.6639    0.4858 H   0  0  0  0  0  0  0  0  0  0  0  0
    1.3497    3.0623   -0.0085 H   0  0  0  0  0  0  0  0  0  0  0  0
    3.9928   -3.5463    1.1515 H   0  0  0  0  0  0  0  0  0  0  0  0
    3.7826   -2.5606    2.4363 H   0  0  0  0  0  0  0  0  0  0  0  0
    2.7685   -2.4658    1.1599 H   0  0  0  0  0  0  0  0  0  0  0  0
    6.3532   -2.7547    0.8882 H   0  0  0  0  0  0  0  0  0  0  0  0
    6.6632   -1.1616    0.7081 H   0  0  0  0  0  0  0  0  0  0  0  0
    6.1926   -1.7428    2.1598 H   0  0  0  0  0  0  0  0  0  0  0  0
    2.6500    3.0934    1.9737 H   0  0  0  0  0  0  0  0  0  0  0  0
   -0.6255    2.8952   -0.5010 H   0  0  0  0  0  0  0  0  0  0  0  0
    1.9557    0.5476   -3.5949 H   0  0  0  0  0  0  0  0  0  0  0  0
   -2.8932    2.7751   -3.9772 H   0  0  0  0  0  0  0  0  0  0  0  0
   -2.6152    3.4453   -1.6981 H   0  0  0  0  0  0  0  0  0  0  0  0
   -2.0410    1.6738   -5.9173 H   0  0  0  0  0  0  0  0  0  0  0  0
    1.6902   -0.1267   -5.8678 H   0  0  0  0  0  0  0  0  0  0  0  0
   -0.3267    0.4453   -7.0342 H   0  0  0  0  0  0  0  0  0  0  0  0
  1  7  1  0  0  0  0
  1 10  1  0  0  0  0
  2  4  1  0  0  0  0
  2 33  1  0  0  0  0
  3  5  1  0  0  0  0
  3  6  1  0  0  0  0
  3 24  1  0  0  0  0
  4  5  1  0  0  0  0
  4  7  1  0  0  0  0
  4 20  1  0  0  0  0
  5 21  1  0  0  0  0
  5 22  1  0  0  0  0
  6  8  1  0  0  0  0
  6  9  1  0  0  0  0
  6 23  1  0  0  0  0
  7 25  1  0  0  0  0
  7 26  1  0  0  0  0
  8 27  1  0  0  0  0
  8 28  1  0  0  0  0
  8 29  1  0  0  0  0
  9 30  1  0  0  0  0
  9 31  1  0  0  0  0
  9 32  1  0  0  0  0
 10 11  1  0  0  0  0
 10 13  2  0  0  0  0
 11 12  1  0  0  0  0
 11 14  2  0  0  0  0
 12 15  1  0  0  0  0
 12 17  2  0  0  0  0
 13 16  1  0  0  0  0
 13 34  1  0  0  0  0
 14 18  1  0  0  0  0
 14 35  1  0  0  0  0
 15 16  2  0  0  0  0
 15 36  1  0  0  0  0
 16 37  1  0  0  0  0
 17 19  1  0  0  0  0
 17 38  1  0  0  0  0
 18 19  2  0  0  0  0
 18 39  1  0  0  0  0
 19 40  1  0  0  0  0
M  END
$$$$
Propranolol
  unicon  03102511263D 1   1.00000     0.00000     0
unicon 1.5.0
 40 41  0  0  0  0            999 V2000
    1.3889    1.6068   -1.3746 O   0  0  0  0  0  0  0  0  0  0  0  0
    2.7841    2.1026    1.9563 O   0  0  0  0  0  0  0  0  0  0  0  0
    4.2345   -0.2507    1.2041 N   0  0  0  0  0  0  0  0  0  0  0  0
    2.7506    1.6406    0.6030 C   0  0  1  0  0  0  0  0  0  0  0  0
    2.9583    0.1243    0.6107 C   0  0  0  0  0  0  0  0  0  0  0  0
    4.6258   -1.5925    0.7937 C   0  0  0  0  0  0  0  0  0  0  0  0
    1.4257    2.0654   -0.0264 C   0  0  0  0  0  0  0  0  0  0  0  0
    3.7138   -2.6308    1.4411 C   0  0  0  0  0  0  0  0  0  0  0  0
    6.0843   -1.8337    1.1699 C   0  0  0  0  0  0  0  0  0  0  0  0
    1.0666    0.3094   -1.5705 C   0  0  0  0  0  0  0  0  0  0  0  0
    0.9977   -0.2555   -2.8417 C   0  0  0  0  0  0  0  0  0  0  0  0
    0.6623   -1.5985   -2.9851 C   0  0  0  0  0  0  0  0  0  0  0  0
    0.8011   -0.4687   -0.4482 C   0  0  0  0  0  0  0  0  0  0  0  0
    1.2582    0.4928   -3.9869 C   0  0  0  0  0  0  0  0  0  0  0  0
    0.3932   -2.3865   -1.8711 C   0  0  0  0  0  0  0  0  0  0  0  0
    0.4657   -1.8093   -0.6073 C   0  0  0  0  0  0  0  0  0  0  0  0
    0.5912   -2.1699   -4.2513 C   0  0  0  0  0  0  0  0  0  0  0  0
    1.1910   -0.0660   -5.2588 C   0  0  0  0  0  0  0  0  0  0  0  0
    0.8537   -1.4092   -5.3853 C   0  0  0  0  0  0  0  0  0  0  0  0
    3.5004    2.0671    0.0971 H   0  0  0  0  0  0  0  0  0  0  0  0
    2.2211   -0.2995    1.1369 H   0  0  0  0  0  0  0  0  0  0  0  0
    2.9301   -0.2098   -0.3314 H   0  0  0  0  0  0  0  0  0  0  0  0
    4.5357   -1.6623   -0.1998 H   0  0  0  0  0  0  0  0  0  0  0  0
    4.1525   -0.2242    2.2004 H   0  0  0  0  0  0  0  0  0  0  0  0
    0.6665    1.6639    0.4858 H   0  0  0  0  0  0  0  0  0  0  0  0
    1.3497    3.0623   -0.0085 H   0  0  0  0  0  0  0  0  0  0  0  0
    3.9928   -3.5463    1.1515 H   0  0  0  0  0  0  0  0  0  0  0  0
    3.7826   -2.5606    2.4363 H   0  0  0  0  0  0  0  0  0  0  0  0
    2.7685   -2.4658    1.1599 H   0  0  0  0  0  0  0  0  0  0  0  0
    6.3532   -2.7547    0.8882 H   0  0  0  0  0  0  0  0  0  0  0  0
    6.6632   -1.1616    0.7081 H   0  0  0  0  0  0  0  0  0  0  0  0
    6.1926   -1.7428    2.1598 H   0  0  0  0  0  0  0  0  0  0  0  0
    2.6500    3.0934    1.9737 H   0  0  0  0  0  0  0  0  0  0  0  0
    0.8509   -0.0672    0.4663 H   0  0  0  0  0  0  0  0  0  0  0  0
    1.5001    1.4585   -3.8923 H   0  0  0  0  0  0  0  0  0  0  0  0
    0.1518   -3.3512   -1.9766 H   0  0  0  0  0  0  0  0  0  0  0  0
    0.2737   -2.3673    0.2000 H   0  0  0  0  0  0  0  0  0  0  0  0
    0.3494   -3.1355   -4.3468 H   0  0  0  0  0  0  0  0  0  0  0  0
    1.3821    0.4886   -6.0687 H   0  0  0  0  0  0  0  0  0  0  0  0
    0.7999   -1.8280   -6.2917 H   0  0  0  0  0  0  0  0  0  0  0  0
  1  7  1  0  0  0  0
  1 10  1  0  0  0  0
  2  4  1  0  0  0  0
  2 33  1  0  0  0  0
  3  5  1  0  0  0  0
  3  6  1  0  0  0  0
  3 24  1  0  0  0  0
  4  5  1  0  0  0  0
  4  7  1  0  0  0  0
  4 20  1  0  0  0  0
  5 21  1  0  0  0  0
  5 22  1  0  0  0  0
  6  8  1  0  0  0  0
  6  9  1  0  0  0  0
  6 23  1  0  0  0  0
  7 25  1  0  0  0  0
  7 26  1  0  0  0  0
  8 27  1  0  0  0  0
  8 28  1  0  0  0  0
  8 29  1  0  0  0  0
  9 30  1  0  0  0  0
  9 31  1  0  0  0  0
  9 32  1  0  0  0  0
 10 11  1  0  0  0  0
 10 13  2  0  0  0  0
 11 12  1  0  0  0  0
 11 14  2  0  0  0  0
 12 15  1  0  0  0  0
 12 17  2  0  0  0  0
 13 16  1  0  0  0  0
 13 34  1  0  0  0  0
 14 18  1  0  0  0  0
 14 35  1  0  0  0  0
 15 16  2  0  0  0  0
 15 36  1  0  0  0  0
 16 37  1  0  0  0  0
 17 19  1  0  0  0  0
 17 38  1  0  0  0  0
 18 19  2  0  0  0  0
 18 39  1  0  0  0  0
 19 40  1  0  0  0  0
M  END
$$$$
Propranolol
  unicon  03102511263D 1   1.00000     0.00000     0
unicon 1.5.0
 40 41  0  0  0  0            999 V2000
    1.3889    1.6068   -1.3746 O   0  0  0  0  0  0  0  0  0  0  0  0
    2.7841    2.1026    1.9563 O   0  0  0  0  0  0  0  0  0  0  0  0
    4.2345   -0.2507    1.2041 N   0  0  0  0  0  0  0  0  0  0  0  0
    2.7506    1.6406    0.6030 C   0  0  1  0  0  0  0  0  0  0  0  0
    2.9583    0.1243    0.6107 C   0  0  0  0  0  0  0  0  0  0  0  0
    4.6258   -1.5925    0.7937 C   0  0  0  0  0  0  0  0  0  0  0  0
    1.4257    2.0654   -0.0264 C   0  0  0  0  0  0  0  0  0  0  0  0
    3.7138   -2.6308    1.4411 C   0  0  0  0  0  0  0  0  0  0  0  0
    6.0843   -1.8337    1.1699 C   0  0  0  0  0  0  0  0  0  0  0  0
    2.0595    2.3417   -2.2888 C   0  0  0  0  0  0  0  0  0  0  0  0
    2.0975    1.9956   -3.6374 C   0  0  0  0  0  0  0  0  0  0  0  0
    2.8027    2.7902   -4.5363 C   0  0  0  0  0  0  0  0  0  0  0  0
    2.7248    3.4795   -1.8437 C   0  0  0  0  0  0  0  0  0  0  0  0
    1.4425    0.8647   -4.1185 C   0  0  0  0  0  0  0  0  0  0  0  0
    3.4731    3.9293   -4.1035 C   0  0  0  0  0  0  0  0  0  0  0  0
    3.4266    4.2632   -2.7536 C   0  0  0  0  0  0  0  0  0  0  0  0
    2.8456    2.4511   -5.8846 C   0  0  0  0  0  0  0  0  0  0  0  0
    1.4770    0.5143   -5.4640 C   0  0  0  0  0  0  0  0  0  0  0  0
    2.1867    1.3183   -6.3494 C   0  0  0  0  0  0  0  0  0  0  0  0
    3.5004    2.0671    0.0971 H   0  0  0  0  0  0  0  0  0  0  0  0
    2.2211   -0.2995    1.1369 H   0  0  0  0  0  0  0  0  0  0  0  0
    2.9301   -0.2098   -0.3314 H   0  0  0  0  0  0  0  0  0  0  0  0
    4.5357   -1.6623   -0.1998 H   0  0  0  0  0  0  0  0  0  0  0  0
    4.1525   -0.2242    2.2004 H   0  0  0  0  0  0  0  0  0  0  0  0
    0.6665    1.6639    0.4858 H   0  0  0  0  0  0  0  0  0  0  0  0
    1.3497    3.0623   -0.0085 H   0  0  0  0  0  0  0  0  0  0  0  0
    3.9928   -3.5463    1.1515 H   0  0  0  0  0  0  0  0  0  0  0  0
    3.7826   -2.5606    2.4363 H   0  0  0  0  0  0  0  0  0  0  0  0
    2.7685   -2.4658    1.1599 H   0  0  0  0  0  0  0  0  0  0  0  0
    6.3532   -2.7547    0.8882 H   0  0  0  0  0  0  0  0  0  0  0  0
    6.6632   -1.1616    0.7081 H   0  0  0  0  0  0  0  0  0  0  0  0
    6.1926   -1.7428    2.1598 H   0  0  0  0  0  0  0  0  0  0  0  0
    2.6500    3.0934    1.9737 H   0  0  0  0  0  0  0  0  0  0  0  0
    2.6986    3.7322   -0.8765 H   0  0  0  0  0  0  0  0  0  0  0  0
    0.9334    0.2887   -3.4789 H   0  0  0  0  0  0  0  0  0  0  0  0
    3.9797    4.4984   -4.7511 H   0  0  0  0  0  0  0  0  0  0  0  0
    3.9057    5.0801   -2.4323 H   0  0  0  0  0  0  0  0  0  0  0  0
    3.3544    3.0266   -6.5249 H   0  0  0  0  0  0  0  0  0  0  0  0
    0.9995   -0.3019   -5.7893 H   0  0  0  0  0  0  0  0  0  0  0  0
    2.2231    1.0817   -7.3203 H   0  0  0  0  0  0  0  0  0  0  0  0
  1  7  1  0  0  0  0
  1 10  1  0  0  0  0
  2  4  1  0  0  0  0
  2 33  1  0  0  0  0
  3  5  1  0  0  0  0
  3  6  1  0  0  0  0
  3 24  1  0  0  0  0
  4  5  1  0  0  0  0
  4  7  1  0  0  0  0
  4 20  1  0  0  0  0
  5 21  1  0  0  0  0
  5 22  1  0  0  0  0
  6  8  1  0  0  0  0
  6  9  1  0  0  0  0
  6 23  1  0  0  0  0
  7 25  1  0  0  0  0
  7 26  1  0  0  0  0
  8 27  1  0  0  0  0
  8 28  1  0  0  0  0
  8 29  1  0  0  0  0
  9 30  1  0  0  0  0
  9 31  1  0  0  0  0
  9 32  1  0  0  0  0
 10 11  1  0  0  0  0
 10 13  2  0  0  0  0
 11 12  1  0  0  0  0
 11 14  2  0  0  0  0
 12 15  1  0  0  0  0
 12 17  2  0  0  0  0
 13 16  1  0  0  0  0
 13 34  1  0  0  0  0
 14 18  1  0  0  0  0
 14 35  1  0  0  0  0
 15 16  2  0  0  0  0
 15 36  1  0  0  0  0
 16 37  1  0  0  0  0
 17 19  1  0  0  0  0
 17 38  1  0  0  0  0
 18 19  2  0  0  0  0
 18 39  1  0  0  0  0
 19 40  1  0  0  0  0
M  END
$$$$
Propranolol
  unicon  03102511263D 1   1.00000     0.00000     0
unicon 1.5.0
 40 41  0  0  0  0            999 V2000
    1.3339    3.4865    0.0098 O   0  0  0  0  0  0  0  0  0  0  0  0
    2.7841    2.1026    1.9563 O   0  0  0  0  0  0  0  0  0  0  0  0
    4.2345   -0.2507    1.2041 N   0  0  0  0  0  0  0  0  0  0  0  0
    2.7506    1.6406    0.6030 C   0  0  1  0  0  0  0  0  0  0  0  0
    2.9583    0.1243    0.6107 C   0  0  0  0  0  0  0  0  0  0  0  0
    4.6258   -1.5925    0.7937 C   0  0  0  0  0  0  0  0  0  0  0  0
    1.4257    2.0654   -0.0264 C   0  0  0  0  0  0  0  0  0  0  0  0
    3.7138   -2.6308    1.4411 C   0  0  0  0  0  0  0  0  0  0  0  0
    6.0843   -1.8337    1.1699 C   0  0  0  0  0  0  0  0  0  0  0  0
    0.2163    4.0404   -0.5098 C   0  0  0  0  0  0  0  0  0  0  0  0
    0.0109    5.4177   -0.5322 C   0  0  0  0  0  0  0  0  0  0  0  0
   -1.1588    5.9342   -1.0816 C   0  0  0  0  0  0  0  0  0  0  0  0
   -0.7460    3.1849   -1.0365 C   0  0  0  0  0  0  0  0  0  0  0  0
    0.9528    6.3037   -0.0152 C   0  0  0  0  0  0  0  0  0  0  0  0
   -2.1291    5.0894   -1.6099 C   0  0  0  0  0  0  0  0  0  0  0  0
   -1.9107    3.7157   -1.5811 C   0  0  0  0  0  0  0  0  0  0  0  0
   -1.3714    7.3086   -1.1074 C   0  0  0  0  0  0  0  0  0  0  0  0
    0.7530    7.6800   -0.0349 C   0  0  0  0  0  0  0  0  0  0  0  0
   -0.4214    8.1803   -0.5867 C   0  0  0  0  0  0  0  0  0  0  0  0
    3.5004    2.0671    0.0971 H   0  0  0  0  0  0  0  0  0  0  0  0
    2.2211   -0.2995    1.1369 H   0  0  0  0  0  0  0  0  0  0  0  0
    2.9301   -0.2098   -0.3314 H   0  0  0  0  0  0  0  0  0  0  0  0
    4.5357   -1.6623   -0.1998 H   0  0  0  0  0  0  0  0  0  0  0  0
    4.1525   -0.2242    2.2004 H   0  0  0  0  0  0  0  0  0  0  0  0
    1.3881    1.7504   -0.9748 H   0  0  0  0  0  0  0  0  0  0  0  0
    0.6664    1.6665    0.4877 H   0  0  0  0  0  0  0  0  0  0  0  0
    3.9928   -3.5463    1.1515 H   0  0  0  0  0  0  0  0  0  0  0  0
    3.7826   -2.5606    2.4363 H   0  0  0  0  0  0  0  0  0  0  0  0
    2.7685   -2.4658    1.1599 H   0  0  0  0  0  0  0  0  0  0  0  0
    6.3532   -2.7547    0.8882 H   0  0  0  0  0  0  0  0  0  0  0  0
    6.6632   -1.1616    0.7081 H   0  0  0  0  0  0  0  0  0  0  0  0
    6.1926   -1.7428    2.1598 H   0  0  0  0  0  0  0  0  0  0  0  0
    2.6500    3.0934    1.9737 H   0  0  0  0  0  0  0  0  0  0  0  0
   -0.6015    2.1955   -1.0237 H   0  0  0  0  0  0  0  0  0  0  0  0
    1.7960    5.9404    0.3811 H   0  0  0  0  0  0  0  0  0  0  0  0
   -2.9690    5.4629   -2.0036 H   0  0  0  0  0  0  0  0  0  0  0  0
   -2.6025    3.0997   -1.9580 H   0  0  0  0  0  0  0  0  0  0  0  0
   -2.2143    7.6727   -1.5036 H   0  0  0  0  0  0  0  0  0  0  0  0
    1.4421    8.2993    0.3413 H   0  0  0  0  0  0  0  0  0  0  0  0
   -0.5826    9.1669   -0.6090 H   0  0  0  0  0  0  0  0  0  0  0  0
  1  7  1  0  0  0  0
  1 10  1  0  0  0  0
  2  4  1  0  0  0  0
  2 33  1  0  0  0  0
  3  5  1  0  0  0  0
  3  6  1  0  0  0  0
  3 24  1  0  0  0  0
  4  5  1  0  0  0  0
  4  7  1  0  0  0  0
  4 20  1  0  0  0  0
  5 21  1  0  0  0  0
  5 22  1  0  0  0  0
  6  8  1  0  0  0  0
  6  9  1  0  0  0  0
  6 23  1  0  0  0  0
  7 25  1  0  0  0  0
  7 26  1  0  0  0  0
  8 27  1  0  0  0  0
  8 28  1  0  0  0  0
  8 29  1  0  0  0  0
  9 30  1  0  0  0  0
  9 31  1  0  0  0  0
  9 32  1  0  0  0  0
 10 11  1  0  0  0  0
 10 13  2  0  0  0  0
 11 12  1  0  0  0  0
 11 14  2  0  0  0  0
 12 15  1  0  0  0  0
 12 17  2  0  0  0  0
 13 16  1  0  0  0  0
 13 34  1  0  0  0  0
 14 18  1  0  0  0  0
 14 35  1  0  0  0  0
 15 16  2  0  0  0  0
 15 36  1  0  0  0  0
 16 37  1  0  0  0  0
 17 19  1  0  0  0  0
 17 38  1  0  0  0  0
 18 19  2  0  0  0  0
 18 39  1  0  0  0  0
 19 40  1  0  0  0  0
M  END
$$$$
Propranolol
  unicon  03102511263D 1   1.00000     0.00000     0
unicon 1.5.0
 40 41  0  0  0  0            999 V2000
    1.3339    3.4865    0.0098 O   0  0  0  0  0  0  0  0  0  0  0  0
    2.7841    2.1026    1.9563 O   0  0  0  0  0  0  0  0  0  0  0  0
    4.2345   -0.2507    1.2041 N   0  0  0  0  0  0  0  0  0  0  0  0
    2.7506    1.6406    0.6030 C   0  0  1  0  0  0  0  0  0  0  0  0
    2.9583    0.1243    0.6107 C   0  0  0  0  0  0  0  0  0  0  0  0
    4.6258   -1.5925    0.7937 C   0  0  0  0  0  0  0  0  0  0  0  0
    1.4257    2.0654   -0.0264 C   0  0  0  0  0  0  0  0  0  0  0  0
    3.7138   -2.6308    1.4411 C   0  0  0  0  0  0  0  0  0  0  0  0
    6.0843   -1.8337    1.1699 C   0  0  0  0  0  0  0  0  0  0  0  0
    2.0060    4.1671   -0.9444 C   0  0  0  0  0  0  0  0  0  0  0  0
    1.9933    5.5581   -1.0135 C   0  0  0  0  0  0  0  0  0  0  0  0
    2.7054    6.2078   -2.0172 C   0  0  0  0  0  0  0  0  0  0  0  0
    2.7301    3.4310   -1.8768 C   0  0  0  0  0  0  0  0  0  0  0  0
    1.2807    6.3270   -0.0967 C   0  0  0  0  0  0  0  0  0  0  0  0
    3.4319    5.4831   -2.9561 C   0  0  0  0  0  0  0  0  0  0  0  0
    3.4359    4.0942   -2.8751 C   0  0  0  0  0  0  0  0  0  0  0  0
    2.6974    7.5967   -2.0930 C   0  0  0  0  0  0  0  0  0  0  0  0
    1.2644    7.7163   -0.1608 C   0  0  0  0  0  0  0  0  0  0  0  0
    1.9805    8.3504   -1.1702 C   0  0  0  0  0  0  0  0  0  0  0  0
    3.5004    2.0671    0.0971 H   0  0  0  0  0  0  0  0  0  0  0  0
    2.2211   -0.2995    1.1369 H   0  0  0  0  0  0  0  0  0  0  0  0
    2.9301   -0.2098   -0.3314 H   0  0  0  0  0  0  0  0  0  0  0  0
    4.5357   -1.6623   -0.1998 H   0  0  0  0  0  0  0  0  0  0  0  0
    4.1525   -0.2242    2.2004 H   0  0  0  0  0  0  0  0  0  0  0  0
    1.3881    1.7504   -0.9748 H   0  0  0  0  0  0  0  0  0  0  0  0
    0.6664    1.6665    0.4877 H   0  0  0  0  0  0  0  0  0  0  0  0
    3.9928   -3.5463    1.1515 H   0  0  0  0  0  0  0  0  0  0  0  0
    3.7826   -2.5606    2.4363 H   0  0  0  0  0  0  0  0  0  0  0  0
    2.7685   -2.4658    1.1599 H   0  0  0  0  0  0  0  0  0  0  0  0
    6.3532   -2.7547    0.8882 H   0  0  0  0  0  0  0  0  0  0  0  0
    6.6632   -1.1616    0.7081 H   0  0  0  0  0  0  0  0  0  0  0  0
    6.1926   -1.7428    2.1598 H   0  0  0  0  0  0  0  0  0  0  0  0
    2.6500    3.0934    1.9737 H   0  0  0  0  0  0  0  0  0  0  0  0
    2.7429    2.4322   -1.8296 H   0  0  0  0  0  0  0  0  0  0  0  0
    0.7666    5.8676    0.6277 H   0  0  0  0  0  0  0  0  0  0  0  0
    3.9424    5.9522   -3.6767 H   0  0  0  0  0  0  0  0  0  0  0  0
    3.9548    3.5640   -3.5457 H   0  0  0  0  0  0  0  0  0  0  0  0
    3.2113    8.0569   -2.8170 H   0  0  0  0  0  0  0  0  0  0  0  0
    0.7465    8.2501    0.5076 H   0  0  0  0  0  0  0  0  0  0  0  0
    1.9799    9.3484   -1.2324 H   0  0  0  0  0  0  0  0  0  0  0  0
  1  7  1  0  0  0  0
  1 10  1  0  0  0  0
  2  4  1  0  0  0  0
  2 33  1  0  0  0  0
  3  5  1  0  0  0  0
  3  6  1  0  0  0  0
  3 24  1  0  0  0  0
  4  5  1  0  0  0  0
  4  7  1  0  0  0  0
  4 20  1  0  0  0  0
  5 21  1  0  0  0  0
  5 22  1  0  0  0  0
  6  8  1  0  0  0  0
  6  9  1  0  0  0  0
  6 23  1  0  0  0  0
  7 25  1  0  0  0  0
  7 26  1  0  0  0  0
  8 27  1  0  0  0  0
  8 28  1  0  0  0  0
  8 29  1  0  0  0  0
  9 30  1  0  0  0  0
  9 31  1  0  0  0  0
  9 32  1  0  0  0  0
 10 11  1  0  0  0  0
 10 13  2  0  0  0  0
 11 12  1  0  0  0  0
 11 14  2  0  0  0  0
 12 15  1  0  0  0  0
 12 17  2  0  0  0  0
 13 16  1  0  0  0  0
 13 34  1  0  0  0  0
 14 18  1  0  0  0  0
 14 35  1  0  0  0  0
 15 16  2  0  0  0  0
 15 36  1  0  0  0  0
 16 37  1  0  0  0  0
 17 19  1  0  0  0  0
 17 38  1  0  0  0  0
 18 19  2  0  0  0  0
 18 39  1  0  0  0  0
 19 40  1  0  0  0  0
M  END
$$$$
Propranolol
  unicon  03102511263D 1   1.00000     0.00000     0
unicon 1.5.0
 40 41  0  0  0  0            999 V2000
    1.3339    3.4865    0.0098 O   0  0  0  0  0  0  0  0  0  0  0  0
    2.7841    2.1026    1.9563 O   0  0  0  0  0  0  0  0  0  0  0  0
    4.2345   -0.2507    1.2041 N   0  0  0  0  0  0  0  0  0  0  0  0
    2.7506    1.6406    0.6030 C   0  0  1  0  0  0  0  0  0  0  0  0
    2.9583    0.1243    0.6107 C   0  0  0  0  0  0  0  0  0  0  0  0
    4.6258   -1.5925    0.7937 C   0  0  0  0  0  0  0  0  0  0  0  0
    1.4257    2.0654   -0.0264 C   0  0  0  0  0  0  0  0  0  0  0  0
    3.7138   -2.6308    1.4411 C   0  0  0  0  0  0  0  0  0  0  0  0
    6.0843   -1.8337    1.1699 C   0  0  0  0  0  0  0  0  0  0  0  0
    0.9572    4.0451    1.1810 C   0  0  0  0  0  0  0  0  0  0  0  0
    0.8315    5.4230    1.3407 C   0  0  0  0  0  0  0  0  0  0  0  0
    0.4383    5.9443    2.5697 C   0  0  0  0  0  0  0  0  0  0  0  0
    0.6893    3.1939    2.2483 C   0  0  0  0  0  0  0  0  0  0  0  0
    1.0904    6.3047    0.2943 C   0  0  0  0  0  0  0  0  0  0  0  0
    0.1690    5.1039    3.6446 C   0  0  0  0  0  0  0  0  0  0  0  0
    0.2985    3.7296    3.4710 C   0  0  0  0  0  0  0  0  0  0  0  0
    0.3107    7.3193    2.7371 C   0  0  0  0  0  0  0  0  0  0  0  0
    0.9664    7.6815    0.4480 C   0  0  0  0  0  0  0  0  0  0  0  0
    0.5733    8.1867    1.6825 C   0  0  0  0  0  0  0  0  0  0  0  0
    3.5004    2.0671    0.0971 H   0  0  0  0  0  0  0  0  0  0  0  0
    2.2211   -0.2995    1.1369 H   0  0  0  0  0  0  0  0  0  0  0  0
    2.9301   -0.2098   -0.3314 H   0  0  0  0  0  0  0  0  0  0  0  0
    4.5357   -1.6623   -0.1998 H   0  0  0  0  0  0  0  0  0  0  0  0
    4.1525   -0.2242    2.2004 H   0  0  0  0  0  0  0  0  0  0  0  0
    1.3881    1.7504   -0.9748 H   0  0  0  0  0  0  0  0  0  0  0  0
    0.6664    1.6665    0.4877 H   0  0  0  0  0  0  0  0  0  0  0  0
    3.9928   -3.5463    1.1515 H   0  0  0  0  0  0  0  0  0  0  0  0
    3.7826   -2.5606    2.4363 H   0  0  0  0  0  0  0  0  0  0  0  0
    2.7685   -2.4658    1.1599 H   0  0  0  0  0  0  0  0  0  0  0  0
    6.3532   -2.7547    0.8882 H   0  0  0  0  0  0  0  0  0  0  0  0
    6.6632   -1.1616    0.7081 H   0  0  0  0  0  0  0  0  0  0  0  0
    6.1926   -1.7428    2.1598 H   0  0  0  0  0  0  0  0  0  0  0  0
    2.6500    3.0934    1.9737 H   0  0  0  0  0  0  0  0  0  0  0  0
    0.7769    2.2040    2.1372 H   0  0  0  0  0  0  0  0  0  0  0  0
    1.3732    5.9379   -0.5920 H   0  0  0  0  0  0  0  0  0  0  0  0
   -0.1129    5.4809    4.5269 H   0  0  0  0  0  0  0  0  0  0  0  0
    0.1075    3.1169    4.2379 H   0  0  0  0  0  0  0  0  0  0  0  0
    0.0278    7.6869    3.6230 H   0  0  0  0  0  0  0  0  0  0  0  0
    1.1567    8.2976   -0.3163 H   0  0  0  0  0  0  0  0  0  0  0  0
    0.4794    9.1738    1.8118 H   0  0  0  0  0  0  0  0  0  0  0  0
  1  7  1  0  0  0  0
  1 10  1  0  0  0  0
  2  4  1  0  0  0  0
  2 33  1  0  0  0  0
  3  5  1  0  0  0  0
  3  6  1  0  0  0  0
  3 24  1  0  0  0  0
  4  5  1  0  0  0  0
  4  7  1  0  0  0  0
  4 20  1  0  0  0  0
  5 21  1  0  0  0  0
  5 22  1  0  0  0  0
  6  8  1  0  0  0  0
  6  9  1  0  0  0  0
  6 23  1  0  0  0  0
  7 25  1  0  0  0  0
  7 26  1  0  0  0  0
  8 27  1  0  0  0  0
  8 28  1  0  0  0  0
  8 29  1  0  0  0  0
  9 30  1  0  0  0  0
  9 31  1  0  0  0  0
  9 32  1  0  0  0  0
 10 11  1  0  0  0  0
 10 13  2  0  0  0  0
 11 12  1  0  0  0  0
 11 14  2  0  0  0  0
 12 15  1  0  0  0  0
 12 17  2  0  0  0  0
 13 16  1  0  0  0  0
 13 34  1  0  0  0  0
 14 18  1  0  0  0  0
 14 35  1  0  0  0  0
 15 16  2  0  0  0  0
 15 36  1  0  0  0  0
 16 37  1  0  0  0  0
 17 19  1  0  0  0  0
 17 38  1  0  0  0  0
 18 19  2  0  0  0  0
 18 39  1  0  0  0  0
 19 40  1  0  0  0  0
M  END
$$$$
Propranolol
  unicon  03102511263D 1   1.00000     0.00000     0
unicon 1.5.0
 40 41  0  0  0  0            999 V2000
    0.3569    1.4868    0.7167 O   0  0  0  0  0  0  0  0  0  0  0  0
    2.7841    2.1026    1.9563 O   0  0  0  0  0  0  0  0  0  0  0  0
    4.2345   -0.2507    1.2041 N   0  0  0  0  0  0  0  0  0  0  0  0
    2.7506    1.6406    0.6030 C   0  0  1  0  0  0  0  0  0  0  0  0
    2.9583    0.1243    0.6107 C   0  0  0  0  0  0  0  0  0  0  0  0
    5.3221   -0.0834    0.2497 C   0  0  0  0  0  0  0  0  0  0  0  0
    1.4257    2.0654   -0.0264 C   0  0  0  0  0  0  0  0  0  0  0  0
    5.5734    1.3990   -0.0116 C   0  0  0  0  0  0  0  0  0  0  0  0
    4.9807   -0.8175   -1.0432 C   0  0  0  0  0  0  0  0  0  0  0  0
   -0.8979    1.7597    0.2964 C   0  0  0  0  0  0  0  0  0  0  0  0
   -2.0240    1.2525    0.9402 C   0  0  0  0  0  0  0  0  0  0  0  0
   -3.2936    1.5675    0.4650 C   0  0  0  0  0  0  0  0  0  0  0  0
   -1.0439    2.5793   -0.8182 C   0  0  0  0  0  0  0  0  0  0  0  0
   -1.9157    0.4302    2.0589 C   0  0  0  0  0  0  0  0  0  0  0  0
   -3.4527    2.3846   -0.6492 C   0  0  0  0  0  0  0  0  0  0  0  0
   -2.3191    2.8843   -1.2825 C   0  0  0  0  0  0  0  0  0  0  0  0
   -4.4231    1.0647    1.1023 C   0  0  0  0  0  0  0  0  0  0  0  0
   -3.0367   -0.0789    2.7058 C   0  0  0  0  0  0  0  0  0  0  0  0
   -4.2982    0.2444    2.2181 C   0  0  0  0  0  0  0  0  0  0  0  0
    3.5004    2.0671    0.0971 H   0  0  0  0  0  0  0  0  0  0  0  0
    2.2211   -0.2995    1.1369 H   0  0  0  0  0  0  0  0  0  0  0  0
    2.9301   -0.2098   -0.3314 H   0  0  0  0  0  0  0  0  0  0  0  0
    6.1521   -0.4855    0.6365 H   0  0  0  0  0  0  0  0  0  0  0  0
    4.1939   -1.2083    1.4894 H   0  0  0  0  0  0  0  0  0  0  0  0
    1.3483    3.0622   -0.0056 H   0  0  0  0  0  0  0  0  0  0  0  0
    1.3867    1.7477   -0.9738 H   0  0  0  0  0  0  0  0  0  0  0  0
    6.3214    1.4997   -0.6676 H   0  0  0  0  0  0  0  0  0  0  0  0
    4.7448    1.8169   -0.3840 H   0  0  0  0  0  0  0  0  0  0  0  0
    5.8187    1.8517    0.8457 H   0  0  0  0  0  0  0  0  0  0  0  0
    5.7272   -0.7028   -1.6987 H   0  0  0  0  0  0  0  0  0  0  0  0
    4.8529   -1.7903   -0.8504 H   0  0  0  0  0  0  0  0  0  0  0  0
    4.1383   -0.4404   -1.4281 H   0  0  0  0  0  0  0  0  0  0  0  0
    2.6500    3.0934    1.9737 H   0  0  0  0  0  0  0  0  0  0  0  0
   -0.2378    2.9466   -1.2823 H   0  0  0  0  0  0  0  0  0  0  0  0
   -1.0069    0.1995    2.4066 H   0  0  0  0  0  0  0  0  0  0  0  0
   -4.3660    2.6090   -0.9892 H   0  0  0  0  0  0  0  0  0  0  0  0
   -2.4229    3.4723   -2.0846 H   0  0  0  0  0  0  0  0  0  0  0  0
   -5.3322    1.2951    0.7553 H   0  0  0  0  0  0  0  0  0  0  0  0
   -2.9373   -0.6676    3.5081 H   0  0  0  0  0  0  0  0  0  0  0  0
   -5.1156   -0.1129    2.6699 H   0  0  0  0  0  0  0  0  0  0  0  0
  1  7  1  0  0  0  0
  1 10  1  0  0  0  0
  2  4  1  0  0  0  0
  2 33  1  0  0  0  0
  3  5  1  0  0  0  0
  3  6  1  0  0  0  0
  3 24  1  0  0  0  0
  4  5  1  0  0  0  0
  4  7  1  0  0  0  0
  4 20  1  0  0  0  0
  5 21  1  0  0  0  0
  5 22  1  0  0  0  0
  6  8  1  0  0  0  0
  6  9  1  0  0  0  0
  6 23  1  0  0  0  0
  7 25  1  0  0  0  0
  7 26  1  0  0  0  0
  8 27  1  0  0  0  0
  8 28  1  0  0  0  0
  8 29  1  0  0  0  0
  9 30  1  0  0  0  0
  9 31  1  0  0  0  0
  9 32  1  0  0  0  0
 10 11  1  0  0  0  0
 10 13  2  0  0  0  0
 11 12  1  0  0  0  0
 11 14  2  0  0  0  0
 12 15  1  0  0  0  0
 12 17  2  0  0  0  0
 13 16  1  0  0  0  0
 13 34  1  0  0  0  0
 14 18  1  0  0  0  0
 14 35  1  0  0  0  0
 15 16  2  0  0  0  0
 15 36  1  0  0  0  0
 16 37  1  0  0  0  0
 17 19  1  0  0  0  0
 17 38  1  0  0  0  0
 18 19  2  0  0  0  0
 18 39  1  0  0  0  0
 19 40  1  0  0  0  0
M  END
$$$$
Propranolol
  unicon  03102511263D 1   1.00000     0.00000     0
unicon 1.5.0
 40 41  0  0  0  0            999 V2000
    0.3569    1.4868    0.7167 O   0  0  0  0  0  0  0  0  0  0  0  0
    2.7841    2.1026    1.9563 O   0  0  0  0  0  0  0  0  0  0  0  0
    4.2345   -0.2507    1.2041 N   0  0  0  0  0  0  0  0  0  0  0  0
    2.7506    1.6406    0.6030 C   0  0  1  0  0  0  0  0  0  0  0  0
    2.9583    0.1243    0.6107 C   0  0  0  0  0  0  0  0  0  0  0  0
    5.3221   -0.0834    0.2497 C   0  0  0  0  0  0  0  0  0  0  0  0
    1.4257    2.0654   -0.0264 C   0  0  0  0  0  0  0  0  0  0  0  0
    5.5734    1.3990   -0.0116 C   0  0  0  0  0  0  0  0  0  0  0  0
    4.9807   -0.8175   -1.0432 C   0  0  0  0  0  0  0  0  0  0  0  0
    0.0085    2.1032    1.8675 C   0  0  0  0  0  0  0  0  0  0  0  0
   -1.0201    1.6330    2.6804 C   0  0  0  0  0  0  0  0  0  0  0  0
   -1.3357    2.3067    3.8565 C   0  0  0  0  0  0  0  0  0  0  0  0
    0.7177    3.2430    2.2324 C   0  0  0  0  0  0  0  0  0  0  0  0
   -1.7502    0.4949    2.3472 C   0  0  0  0  0  0  0  0  0  0  0  0
   -0.6351    3.4482    4.2315 C   0  0  0  0  0  0  0  0  0  0  0  0
    0.3900    3.9066    3.4101 C   0  0  0  0  0  0  0  0  0  0  0  0
   -2.3617    1.8436    4.6736 C   0  0  0  0  0  0  0  0  0  0  0  0
   -2.7783    0.0208    3.1552 C   0  0  0  0  0  0  0  0  0  0  0  0
   -3.0819    0.7058    4.3267 C   0  0  0  0  0  0  0  0  0  0  0  0
    3.5004    2.0671    0.0971 H   0  0  0  0  0  0  0  0  0  0  0  0
    2.2211   -0.2995    1.1369 H   0  0  0  0  0  0  0  0  0  0  0  0
    2.9301   -0.2098   -0.3314 H   0  0  0  0  0  0  0  0  0  0  0  0
    6.1521   -0.4855    0.6365 H   0  0  0  0  0  0  0  0  0  0  0  0
    4.1939   -1.2083    1.4894 H   0  0  0  0  0  0  0  0  0  0  0  0
    1.3483    3.0622   -0.0056 H   0  0  0  0  0  0  0  0  0  0  0  0
    1.3867    1.7477   -0.9738 H   0  0  0  0  0  0  0  0  0  0  0  0
    6.3214    1.4997   -0.6676 H   0  0  0  0  0  0  0  0  0  0  0  0
    4.7448    1.8169   -0.3840 H   0  0  0  0  0  0  0  0  0  0  0  0
    5.8187    1.8517    0.8457 H   0  0  0  0  0  0  0  0  0  0  0  0
    5.7272   -0.7028   -1.6987 H   0  0  0  0  0  0  0  0  0  0  0  0
    4.8529   -1.7903   -0.8504 H   0  0  0  0  0  0  0  0  0  0  0  0
    4.1383   -0.4404   -1.4281 H   0  0  0  0  0  0  0  0  0  0  0  0
    2.6500    3.0934    1.9737 H   0  0  0  0  0  0  0  0  0  0  0  0
    1.4579    3.5829    1.6521 H   0  0  0  0  0  0  0  0  0  0  0  0
   -1.5293    0.0051    1.5038 H   0  0  0  0  0  0  0  0  0  0  0  0
   -0.8641    3.9309    5.0768 H   0  0  0  0  0  0  0  0  0  0  0  0
    0.8995    4.7267    3.6706 H   0  0  0  0  0  0  0  0  0  0  0  0
   -2.5832    2.3328    5.5172 H   0  0  0  0  0  0  0  0  0  0  0  0
   -3.2904   -0.7987    2.8981 H   0  0  0  0  0  0  0  0  0  0  0  0
   -3.8183    0.3800    4.9198 H   0  0  0  0  0  0  0  0  0  0  0  0
  1  7  1  0  0  0  0
  1 10  1  0  0  0  0
  2  4  1  0  0  0  0
  2 33  1  0  0  0  0
  3  5  1  0  0  0  0
  3  6  1  0  0  0  0
  3 24  1  0  0  0  0
  4  5  1  0  0  0  0
  4  7  1  0  0  0  0
  4 20  1  0  0  0  0
  5 21  1  0  0  0  0
  5 22  1  0  0  0  0
  6  8  1  0  0  0  0
  6  9  1  0  0  0  0
  6 23  1  0  0  0  0
  7 25  1  0  0  0  0
  7 26  1  0  0  0  0
  8 27  1  0  0  0  0
  8 28  1  0  0  0  0
  8 29  1  0  0  0  0
  9 30  1  0  0  0  0
  9 31  1  0  0  0  0
  9 32  1  0  0  0  0
 10 11  1  0  0  0  0
 10 13  2  0  0  0  0
 11 12  1  0  0  0  0
 11 14  2  0  0  0  0
 12 15  1  0  0  0  0
 12 17  2  0  0  0  0
 13 16  1  0  0  0  0
 13 34  1  0  0  0  0
 14 18  1  0  0  0  0
 14 35  1  0  0  0  0
 15 16  2  0  0  0  0
 15 36  1  0  0  0  0
 16 37  1  0  0  0  0
 17 19  1  0  0  0  0
 17 38  1  0  0  0  0
 18 19  2  0  0  0  0
 18 39  1  0  0  0  0
 19 40  1  0  0  0  0
M  END
$$$$
Propranolol
  unicon  03102511263D 1   1.00000     0.00000     0
unicon 1.5.0
 40 41  0  0  0  0            999 V2000
    1.3889    1.6068   -1.3746 O   0  0  0  0  0  0  0  0  0  0  0  0
    2.7841    2.1026    1.9563 O   0  0  0  0  0  0  0  0  0  0  0  0
    4.2345   -0.2507    1.2041 N   0  0  0  0  0  0  0  0  0  0  0  0
    2.7506    1.6406    0.6030 C   0  0  1  0  0  0  0  0  0  0  0  0
    2.9583    0.1243    0.6107 C   0  0  0  0  0  0  0  0  0  0  0  0
    5.3221   -0.0834    0.2497 C   0  0  0  0  0  0  0  0  0  0  0  0
    1.4257    2.0654   -0.0264 C   0  0  0  0  0  0  0  0  0  0  0  0
    5.5734    1.3990   -0.0116 C   0  0  0  0  0  0  0  0  0  0  0  0
    4.9807   -0.8175   -1.0432 C   0  0  0  0  0  0  0  0  0  0  0  0
    0.2791    1.8966   -2.0888 C   0  0  0  0  0  0  0  0  0  0  0  0
    0.1254    1.5025   -3.4158 C   0  0  0  0  0  0  0  0  0  0  0  0
   -1.0401    1.8269   -4.1036 C   0  0  0  0  0  0  0  0  0  0  0  0
   -0.7314    2.6118   -1.4541 C   0  0  0  0  0  0  0  0  0  0  0  0
    1.1154    0.7847   -4.0823 C   0  0  0  0  0  0  0  0  0  0  0  0
   -2.0569    2.5427   -3.4807 C   0  0  0  0  0  0  0  0  0  0  0  0
   -1.8901    2.9299   -2.1548 C   0  0  0  0  0  0  0  0  0  0  0  0
   -1.2009    1.4371   -5.4292 C   0  0  0  0  0  0  0  0  0  0  0  0
    0.9673    0.3886   -5.4073 C   0  0  0  0  0  0  0  0  0  0  0  0
   -0.2029    0.7211   -6.0810 C   0  0  0  0  0  0  0  0  0  0  0  0
    3.5004    2.0671    0.0971 H   0  0  0  0  0  0  0  0  0  0  0  0
    2.2211   -0.2995    1.1369 H   0  0  0  0  0  0  0  0  0  0  0  0
    2.9301   -0.2098   -0.3314 H   0  0  0  0  0  0  0  0  0  0  0  0
    6.1521   -0.4855    0.6365 H   0  0  0  0  0  0  0  0  0  0  0  0
    4.1939   -1.2083    1.4894 H   0  0  0  0  0  0  0  0  0  0  0  0
    0.6665    1.6639    0.4858 H   0  0  0  0  0  0  0  0  0  0  0  0
    1.3497    3.0623   -0.0085 H   0  0  0  0  0  0  0  0  0  0  0  0
    6.3214    1.4997   -0.6676 H   0  0  0  0  0  0  0  0  0  0  0  0
    4.7448    1.8169   -0.3840 H   0  0  0  0  0  0  0  0  0  0  0  0
    5.8187    1.8517    0.8457 H   0  0  0  0  0  0  0  0  0  0  0  0
    5.7272   -0.7028   -1.6987 H   0  0  0  0  0  0  0  0  0  0  0  0
    4.8529   -1.7903   -0.8504 H   0  0  0  0  0  0  0  0  0  0  0  0
    4.1383   -0.4404   -1.4281 H   0  0  0  0  0  0  0  0  0  0  0  0
    2.6500    3.0934    1.9737 H   0  0  0  0  0  0  0  0  0  0  0  0
   -0.6255    2.8952   -0.5010 H   0  0  0  0  0  0  0  0  0  0  0  0
    1.9557    0.5476   -3.5949 H   0  0  0  0  0  0  0  0  0  0  0  0
   -2.8932    2.7751   -3.9772 H   0  0  0  0  0  0  0  0  0  0  0  0
   -2.6152    3.4453   -1.6981 H   0  0  0  0  0  0  0  0  0  0  0  0
   -2.0410    1.6738   -5.9173 H   0  0  0  0  0  0  0  0  0  0  0  0
    1.6902   -0.1267   -5.8678 H   0  0  0  0  0  0  0  0  0  0  0  0
   -0.3267    0.4453   -7.0342 H   0  0  0  0  0  0  0  0  0  0  0  0
  1  7  1  0  0  0  0
  1 10  1  0  0  0  0
  2  4  1  0  0  0  0
  2 33  1  0  0  0  0
  3  5  1  0  0  0  0
  3  6  1  0  0  0  0
  3 24  1  0  0  0  0
  4  5  1  0  0  0  0
  4  7  1  0  0  0  0
  4 20  1  0  0  0  0
  5 21  1  0  0  0  0
  5 22  1  0  0  0  0
  6  8  1  0  0  0  0
  6  9  1  0  0  0  0
  6 23  1  0  0  0  0
  7 25  1  0  0  0  0
  7 26  1  0  0  0  0
  8 27  1  0  0  0  0
  8 28  1  0  0  0  0
  8 29  1  0  0  0  0
  9 30  1  0  0  0  0
  9 31  1  0  0  0  0
  9 32  1  0  0  0  0
 10 11  1  0  0  0  0
 10 13  2  0  0  0  0
 11 12  1  0  0  0  0
 11 14  2  0  0  0  0
 12 15  1  0  0  0  0
 12 17  2  0  0  0  0
 13 16  1  0  0  0  0
 13 34  1  0  0  0  0
 14 18  1  0  0  0  0
 14 35  1  0  0  0  0
 15 16  2  0  0  0  0
 15 36  1  0  0  0  0
 16 37  1  0  0  0  0
 17 19  1  0  0  0  0
 17 38  1  0  0  0  0
 18 19  2  0  0  0  0
 18 39  1  0  0  0  0
 19 40  1  0  0  0  0
M  END
$$$$
Propranolol
  unicon  03102511263D 1   1.00000     0.00000     0
unicon 1.5.0
 40 41  0  0  0  0            999 V2000
    1.3889    1.6068   -1.3746 O   0  0  0  0  0  0  0  0  0  0  0  0
    2.7841    2.1026    1.9563 O   0  0  0  0  0  0  0  0  0  0  0  0
    4.2345   -0.2507    1.2041 N   0  0  0  0  0  0  0  0  0  0  0  0
    2.7506    1.6406    0.6030 C   0  0  1  0  0  0  0  0  0  0  0  0
    2.9583    0.1243    0.6107 C   0  0  0  0  0  0  0  0  0  0  0  0
    5.3221   -0.0834    0.2497 C   0  0  0  0  0  0  0  0  0  0  0  0
    1.4257    2.0654   -0.0264 C   0  0  0  0  0  0  0  0  0  0  0  0
    5.5734    1.3990   -0.0116 C   0  0  0  0  0  0  0  0  0  0  0  0
    4.9807   -0.8175   -1.0432 C   0  0  0  0  0  0  0  0  0  0  0  0
    1.0666    0.3094   -1.5705 C   0  0  0  0  0  0  0  0  0  0  0  0
    0.9977   -0.2555   -2.8417 C   0  0  0  0  0  0  0  0  0  0  0  0
    0.6623   -1.5985   -2.9851 C   0  0  0  0  0  0  0  0  0  0  0  0
    0.8011   -0.4687   -0.4482 C   0  0  0  0  0  0  0  0  0  0  0  0
    1.2582    0.4928   -3.9869 C   0  0  0  0  0  0  0  0  0  0  0  0
    0.3932   -2.3865   -1.8711 C   0  0  0  0  0  0  0  0  0  0  0  0
    0.4657   -1.8093   -0.6073 C   0  0  0  0  0  0  0  0  0  0  0  0
    0.5912   -2.1699   -4.2513 C   0  0  0  0  0  0  0  0  0  0  0  0
    1.1910   -0.0660   -5.2588 C   0  0  0  0  0  0  0  0  0  0  0  0
    0.8537   -1.4092   -5.3853 C   0  0  0  0  0  0  0  0  0  0  0  0
    3.5004    2.0671    0.0971 H   0  0  0  0  0  0  0  0  0  0  0  0
    2.2211   -0.2995    1.1369 H   0  0  0  0  0  0  0  0  0  0  0  0
    2.9301   -0.2098   -0.3314 H   0  0  0  0  0  0  0  0  0  0  0  0
    6.1521   -0.4855    0.6365 H   0  0  0  0  0  0  0  0  0  0  0  0
    4.1939   -1.2083    1.4894 H   0  0  0  0  0  0  0  0  0  0  0  0
    0.6665    1.6639    0.4858 H   0  0  0  0  0  0  0  0  0  0  0  0
    1.3497    3.0623   -0.0085 H   0  0  0  0  0  0  0  0  0  0  0  0
    6.3214    1.4997   -0.6676 H   0  0  0  0  0  0  0  0  0  0  0  0
    4.7448    1.8169   -0.3840 H   0  0  0  0  0  0  0  0  0  0  0  0
    5.8187    1.8517    0.8457 H   0  0  0  0  0  0  0  0  0  0  0  0
    5.7272   -0.7028   -1.6987 H   0  0  0  0  0  0  0  0  0  0  0  0
    4.8529   -1.7903   -0.8504 H   0  0  0  0  0  0  0  0  0  0  0  0
    4.1383   -0.4404   -1.4281 H   0  0  0  0  0  0  0  0  0  0  0  0
    2.6500    3.0934    1.9737 H   0  0  0  0  0  0  0  0  0  0  0  0
    0.8509   -0.0672    0.4663 H   0  0  0  0  0  0  0  0  0  0  0  0
    1.5001    1.4585   -3.8923 H   0  0  0  0  0  0  0  0  0  0  0  0
    0.1518   -3.3512   -1.9766 H   0  0  0  0  0  0  0  0  0  0  0  0
    0.2737   -2.3673    0.2000 H   0  0  0  0  0  0  0  0  0  0  0  0
    0.3494   -3.1355   -4.3468 H   0  0  0  0  0  0  0  0  0  0  0  0
    1.3821    0.4886   -6.0687 H   0  0  0  0  0  0  0  0  0  0  0  0
    0.7999   -1.8280   -6.2917 H   0  0  0  0  0  0  0  0  0  0  0  0
  1  7  1  0  0  0  0
  1 10  1  0  0  0  0
  2  4  1  0  0  0  0
  2 33  1  0  0  0  0
  3  5  1  0  0  0  0
  3  6  1  0  0  0  0
  3 24  1  0  0  0  0
  4  5  1  0  0  0  0
  4  7  1  0  0  0  0
  4 20  1  0  0  0  0
  5 21  1  0  0  0  0
  5 22  1  0  0  0  0
  6  8  1  0  0  0  0
  6  9  1  0  0  0  0
  6 23  1  0  0  0  0
  7 25  1  0  0  0  0
  7 26  1  0  0  0  0
  8 27  1  0  0  0  0
  8 28  1  0  0  0  0
  8 29  1  0  0  0  0
  9 30  1  0  0  0  0
  9 31  1  0  0  0  0
  9 32  1  0  0  0  0
 10 11  1  0  0  0  0
 10 13  2  0  0  0  0
 11 12  1  0  0  0  0
 11 14  2  0  0  0  0
 12 15  1  0  0  0  0
 12 17  2  0  0  0  0
 13 16  1  0  0  0  0
 13 34  1  0  0  0  0
 14 18  1  0  0  0  0
 14 35  1  0  0  0  0
 15 16  2  0  0  0  0
 15 36  1  0  0  0  0
 16 37  1  0  0  0  0
 17 19  1  0  0  0  0
 17 38  1  0  0  0  0
 18 19  2  0  0  0  0
 18 39  1  0  0  0  0
 19 40  1  0  0  0  0
M  END
$$$$
Propranolol
  unicon  03102511263D 1   1.00000     0.00000     0
unicon 1.5.0
 40 41  0  0  0  0            999 V2000
    1.3889    1.6068   -1.3746 O   0  0  0  0  0  0  0  0  0  0  0  0
    2.7841    2.1026    1.9563 O   0  0  0  0  0  0  0  0  0  0  0  0
    4.2345   -0.2507    1.2041 N   0  0  0  0  0  0  0  0  0  0  0  0
    2.7506    1.6406    0.6030 C   0  0  1  0  0  0  0  0  0  0  0  0
    2.9583    0.1243    0.6107 C   0  0  0  0  0  0  0  0  0  0  0  0
    5.3221   -0.0834    0.2497 C   0  0  0  0  0  0  0  0  0  0  0  0
    1.4257    2.0654   -0.0264 C   0  0  0  0  0  0  0  0  0  0  0  0
    5.5734    1.3990   -0.0116 C   0  0  0  0  0  0  0  0  0  0  0  0
    4.9807   -0.8175   -1.0432 C   0  0  0  0  0  0  0  0  0  0  0  0
    2.0595    2.3417   -2.2888 C   0  0  0  0  0  0  0  0  0  0  0  0
    2.0975    1.9956   -3.6374 C   0  0  0  0  0  0  0  0  0  0  0  0
    2.8027    2.7902   -4.5363 C   0  0  0  0  0  0  0  0  0  0  0  0
    2.7248    3.4795   -1.8437 C   0  0  0  0  0  0  0  0  0  0  0  0
    1.4425    0.8647   -4.1185 C   0  0  0  0  0  0  0  0  0  0  0  0
    3.4731    3.9293   -4.1035 C   0  0  0  0  0  0  0  0  0  0  0  0
    3.4266    4.2632   -2.7536 C   0  0  0  0  0  0  0  0  0  0  0  0
    2.8456    2.4511   -5.8846 C   0  0  0  0  0  0  0  0  0  0  0  0
    1.4770    0.5143   -5.4640 C   0  0  0  0  0  0  0  0  0  0  0  0
    2.1867    1.3183   -6.3494 C   0  0  0  0  0  0  0  0  0  0  0  0
    3.5004    2.0671    0.0971 H   0  0  0  0  0  0  0  0  0  0  0  0
    2.2211   -0.2995    1.1369 H   0  0  0  0  0  0  0  0  0  0  0  0
    2.9301   -0.2098   -0.3314 H   0  0  0  0  0  0  0  0  0  0  0  0
    6.1521   -0.4855    0.6365 H   0  0  0  0  0  0  0  0  0  0  0  0
    4.1939   -1.2083    1.4894 H   0  0  0  0  0  0  0  0  0  0  0  0
    0.6665    1.6639    0.4858 H   0  0  0  0  0  0  0  0  0  0  0  0
    1.3497    3.0623   -0.0085 H   0  0  0  0  0  0  0  0  0  0  0  0
    6.3214    1.4997   -0.6676 H   0  0  0  0  0  0  0  0  0  0  0  0
    4.7448    1.8169   -0.3840 H   0  0  0  0  0  0  0  0  0  0  0  0
    5.8187    1.8517    0.8457 H   0  0  0  0  0  0  0  0  0  0  0  0
    5.7272   -0.7028   -1.6987 H   0  0  0  0  0  0  0  0  0  0  0  0
    4.8529   -1.7903   -0.8504 H   0  0  0  0  0  0  0  0  0  0  0  0
    4.1383   -0.4404   -1.4281 H   0  0  0  0  0  0  0  0  0  0  0  0
    2.6500    3.0934    1.9737 H   0  0  0  0  0  0  0  0  0  0  0  0
    2.6986    3.7322   -0.8765 H   0  0  0  0  0  0  0  0  0  0  0  0
    0.9334    0.2887   -3.4789 H   0  0  0  0  0  0  0  0  0  0  0  0
    3.9797    4.4984   -4.7511 H   0  0  0  0  0  0  0  0  0  0  0  0
    3.9057    5.0801   -2.4323 H   0  0  0  0  0  0  0  0  0  0  0  0
    3.3544    3.0266   -6.5249 H   0  0  0  0  0  0  0  0  0  0  0  0
    0.9995   -0.3019   -5.7893 H   0  0  0  0  0  0  0  0  0  0  0  0
    2.2231    1.0817   -7.3203 H   0  0  0  0  0  0  0  0  0  0  0  0
  1  7  1  0  0  0  0
  1 10  1  0  0  0  0
  2  4  1  0  0  0  0
  2 33  1  0  0  0  0
  3  5  1  0  0  0  0
  3  6  1  0  0  0  0
  3 24  1  0  0  0  0
  4  5  1  0  0  0  0
  4  7  1  0  0  0  0
  4 20  1  0  0  0  0
  5 21  1  0  0  0  0
  5 22  1  0  0  0  0
  6  8  1  0  0  0  0
  6  9  1  0  0  0  0
  6 23  1  0  0  0  0
  7 25  1  0  0  0  0
  7 26  1  0  0  0  0
  8 27  1  0  0  0  0
  8 28  1  0  0  0  0
  8 29  1  0  0  0  0
  9 30  1  0  0  0  0
  9 31  1  0  0  0  0
  9 32  1  0  0  0  0
 10 11  1  0  0  0  0
 10 13  2  0  0  0  0
 11 12  1  0  0  0  0
 11 14  2  0  0  0  0
 12 15  1  0  0  0  0
 12 17  2  0  0  0  0
 13 16  1  0  0  0  0
 13 34  1  0  0  0  0
 14 18  1  0  0  0  0
 14 35  1  0  0  0  0
 15 16  2  0  0  0  0
 15 36  1  0  0  0  0
 16 37  1  0  0  0  0
 17 19  1  0  0  0  0
 17 38  1  0  0  0  0
 18 19  2  0  0  0  0
 18 39  1  0  0  0  0
 19 40  1  0  0  0  0
M  END
$$$$
Propranolol
  unicon  03102511263D 1   1.00000     0.00000     0
unicon 1.5.0
 40 41  0  0  0  0            999 V2000
    1.3339    3.4865    0.0098 O   0  0  0  0  0  0  0  0  0  0  0  0
    2.7841    2.1026    1.9563 O   0  0  0  0  0  0  0  0  0  0  0  0
    4.2345   -0.2507    1.2041 N   0  0  0  0  0  0  0  0  0  0  0  0
    2.7506    1.6406    0.6030 C   0  0  1  0  0  0  0  0  0  0  0  0
    2.9583    0.1243    0.6107 C   0  0  0  0  0  0  0  0  0  0  0  0
    5.3221   -0.0834    0.2497 C   0  0  0  0  0  0  0  0  0  0  0  0
    1.4257    2.0654   -0.0264 C   0  0  0  0  0  0  0  0  0  0  0  0
    5.5734    1.3990   -0.0116 C   0  0  0  0  0  0  0  0  0  0  0  0
    4.9807   -0.8175   -1.0432 C   0  0  0  0  0  0  0  0  0  0  0  0
    0.2163    4.0404   -0.5098 C   0  0  0  0  0  0  0  0  0  0  0  0
    0.0109    5.4177   -0.5322 C   0  0  0  0  0  0  0  0  0  0  0  0
   -1.1588    5.9342   -1.0816 C   0  0  0  0  0  0  0  0  0  0  0  0
   -0.7460    3.1849   -1.0365 C   0  0  0  0  0  0  0  0  0  0  0  0
    0.9528    6.3037   -0.0152 C   0  0  0  0  0  0  0  0  0  0  0  0
   -2.1291    5.0894   -1.6099 C   0  0  0  0  0  0  0  0  0  0  0  0
   -1.9107    3.7157   -1.5811 C   0  0  0  0  0  0  0  0  0  0  0  0
   -1.3714    7.3086   -1.1074 C   0  0  0  0  0  0  0  0  0  0  0  0
    0.7530    7.6800   -0.0349 C   0  0  0  0  0  0  0  0  0  0  0  0
   -0.4214    8.1803   -0.5867 C   0  0  0  0  0  0  0  0  0  0  0  0
    3.5004    2.0671    0.0971 H   0  0  0  0  0  0  0  0  0  0  0  0
    2.2211   -0.2995    1.1369 H   0  0  0  0  0  0  0  0  0  0  0  0
    2.9301   -0.2098   -0.3314 H   0  0  0  0  0  0  0  0  0  0  0  0
    6.1521   -0.4855    0.6365 H   0  0  0  0  0  0  0  0  0  0  0  0
    4.1939   -1.2083    1.4894 H   0  0  0  0  0  0  0  0  0  0  0  0
    1.3881    1.7504   -0.9748 H   0  0  0  0  0  0  0  0  0  0  0  0
    0.6664    1.6665    0.4877 H   0  0  0  0  0  0  0  0  0  0  0  0
    6.3214    1.4997   -0.6676 H   0  0  0  0  0  0  0  0  0  0  0  0
    4.7448    1.8169   -0.3840 H   0  0  0  0  0  0  0  0  0  0  0  0
    5.8187    1.8517    0.8457 H   0  0  0  0  0  0  0  0  0  0  0  0
    5.7272   -0.7028   -1.6987 H   0  0  0  0  0  0  0  0  0  0  0  0
    4.8529   -1.7903   -0.8504 H   0  0  0  0  0  0  0  0  0  0  0  0
    4.1383   -0.4404   -1.4281 H   0  0  0  0  0  0  0  0  0  0  0  0
    2.6500    3.0934    1.9737 H   0  0  0  0  0  0  0  0  0  0  0  0
   -0.6015    2.1955   -1.0237 H   0  0  0  0  0  0  0  0  0  0  0  0
    1.7960    5.9404    0.3811 H   0  0  0  0  0  0  0  0  0  0  0  0
   -2.9690    5.4629   -2.0036 H   0  0  0  0  0  0  0  0  0  0  0  0
   -2.6025    3.0997   -1.9580 H   0  0  0  0  0  0  0  0  0  0  0  0
   -2.2143    7.6727   -1.5036 H   0  0  0  0  0  0  0  0  0  0  0  0
    1.4421    8.2993    0.3413 H   0  0  0  0  0  0  0  0  0  0  0  0
   -0.5826    9.1669   -0.6090 H   0  0  0  0  0  0  0  0  0  0  0  0
  1  7  1  0  0  0  0
  1 10  1  0  0  0  0
  2  4  1  0  0  0  0
  2 33  1  0  0  0  0
  3  5  1  0  0  0  0
  3  6  1  0  0  0  0
  3 24  1  0  0  0  0
  4  5  1  0  0  0  0
  4  7  1  0  0  0  0
  4 20  1  0  0  0  0
  5 21  1  0  0  0  0
  5 22  1  0  0  0  0
  6  8  1  0  0  0  0
  6  9  1  0  0  0  0
  6 23  1  0  0  0  0
  7 25  1  0  0  0  0
  7 26  1  0  0  0  0
  8 27  1  0  0  0  0
  8 28  1  0  0  0  0
  8 29  1  0  0  0  0
  9 30  1  0  0  0  0
  9 31  1  0  0  0  0
  9 32  1  0  0  0  0
 10 11  1  0  0  0  0
 10 13  2  0  0  0  0
 11 12  1  0  0  0  0
 11 14  2  0  0  0  0
 12 15  1  0  0  0  0
 12 17  2  0  0  0  0
 13 16  1  0  0  0  0
 13 34  1  0  0  0  0
 14 18  1  0  0  0  0
 14 35  1  0  0  0  0
 15 16  2  0  0  0  0
 15 36  1  0  0  0  0
 16 37  1  0  0  0  0
 17 19  1  0  0  0  0
 17 38  1  0  0  0  0
 18 19  2  0  0  0  0
 18 39  1  0  0  0  0
 19 40  1  0  0  0  0
M  END
$$$$
Propranolol
  unicon  03102511263D 1   1.00000     0.00000     0
unicon 1.5.0
 40 41  0  0  0  0            999 V2000
    1.3339    3.4865    0.0098 O   0  0  0  0  0  0  0  0  0  0  0  0
    2.7841    2.1026    1.9563 O   0  0  0  0  0  0  0  0  0  0  0  0
    4.2345   -0.2507    1.2041 N   0  0  0  0  0  0  0  0  0  0  0  0
    2.7506    1.6406    0.6030 C   0  0  1  0  0  0  0  0  0  0  0  0
    2.9583    0.1243    0.6107 C   0  0  0  0  0  0  0  0  0  0  0  0
    5.3221   -0.0834    0.2497 C   0  0  0  0  0  0  0  0  0  0  0  0
    1.4257    2.0654   -0.0264 C   0  0  0  0  0  0  0  0  0  0  0  0
    5.5734    1.3990   -0.0116 C   0  0  0  0  0  0  0  0  0  0  0  0
    4.9807   -0.8175   -1.0432 C   0  0  0  0  0  0  0  0  0  0  0  0
    2.0060    4.1671   -0.9444 C   0  0  0  0  0  0  0  0  0  0  0  0
    1.9933    5.5581   -1.0135 C   0  0  0  0  0  0  0  0  0  0  0  0
    2.7054    6.2078   -2.0172 C   0  0  0  0  0  0  0  0  0  0  0  0
    2.7301    3.4310   -1.8768 C   0  0  0  0  0  0  0  0  0  0  0  0
    1.2807    6.3270   -0.0967 C   0  0  0  0  0  0  0  0  0  0  0  0
    3.4319    5.4831   -2.9561 C   0  0  0  0  0  0  0  0  0  0  0  0
    3.4359    4.0942   -2.8751 C   0  0  0  0  0  0  0  0  0  0  0  0
    2.6974    7.5967   -2.0930 C   0  0  0  0  0  0  0  0  0  0  0  0
    1.2644    7.7163   -0.1608 C   0  0  0  0  0  0  0  0  0  0  0  0
    1.9805    8.3504   -1.1702 C   0  0  0  0  0  0  0  0  0  0  0  0
    3.5004    2.0671    0.0971 H   0  0  0  0  0  0  0  0  0  0  0  0
    2.2211   -0.2995    1.1369 H   0  0  0  0  0  0  0  0  0  0  0  0
    2.9301   -0.2098   -0.3314 H   0  0  0  0  0  0  0  0  0  0  0  0
    6.1521   -0.4855    0.6365 H   0  0  0  0  0  0  0  0  0  0  0  0
    4.1939   -1.2083    1.4894 H   0  0  0  0  0  0  0  0  0  0  0  0
    1.3881    1.7504   -0.9748 H   0  0  0  0  0  0  0  0  0  0  0  0
    0.6664    1.6665    0.4877 H   0  0  0  0  0  0  0  0  0  0  0  0
    6.3214    1.4997   -0.6676 H   0  0  0  0  0  0  0  0  0  0  0  0
    4.7448    1.8169   -0.3840 H   0  0  0  0  0  0  0  0  0  0  0  0
    5.8187    1.8517    0.8457 H   0  0  0  0  0  0  0  0  0  0  0  0
    5.7272   -0.7028   -1.6987 H   0  0  0  0  0  0  0  0  0  0  0  0
    4.8529   -1.7903   -0.8504 H   0  0  0  0  0  0  0  0  0  0  0  0
    4.1383   -0.4404   -1.4281 H   0  0  0  0  0  0  0  0  0  0  0  0
    2.6500    3.0934    1.9737 H   0  0  0  0  0  0  0  0  0  0  0  0
    2.7429    2.4322   -1.8296 H   0  0  0  0  0  0  0  0  0  0  0  0
    0.7666    5.8676    0.6277 H   0  0  0  0  0  0  0  0  0  0  0  0
    3.9424    5.9522   -3.6767 H   0  0  0  0  0  0  0  0  0  0  0  0
    3.9548    3.5640   -3.5457 H   0  0  0  0  0  0  0  0  0  0  0  0
    3.2113    8.0569   -2.8170 H   0  0  0  0  0  0  0  0  0  0  0  0
    0.7465    8.2501    0.5076 H   0  0  0  0  0  0  0  0  0  0  0  0
    1.9799    9.3484   -1.2324 H   0  0  0  0  0  0  0  0  0  0  0  0
  1  7  1  0  0  0  0
  1 10  1  0  0  0  0
  2  4  1  0  0  0  0
  2 33  1  0  0  0  0
  3  5  1  0  0  0  0
  3  6  1  0  0  0  0
  3 24  1  0  0  0  0
  4  5  1  0  0  0  0
  4  7  1  0  0  0  0
  4 20  1  0  0  0  0
  5 21  1  0  0  0  0
  5 22  1  0  0  0  0
  6  8  1  0  0  0  0
  6  9  1  0  0  0  0
  6 23  1  0  0  0  0
  7 25  1  0  0  0  0
  7 26  1  0  0  0  0
  8 27  1  0  0  0  0
  8 28  1  0  0  0  0
  8 29  1  0  0  0  0
  9 30  1  0  0  0  0
  9 31  1  0  0  0  0
  9 32  1  0  0  0  0
 10 11  1  0  0  0  0
 10 13  2  0  0  0  0
 11 12  1  0  0  0  0
 11 14  2  0  0  0  0
 12 15  1  0  0  0  0
 12 17  2  0  0  0  0
 13 16  1  0  0  0  0
 13 34  1  0  0  0  0
 14 18  1  0  0  0  0
 14 35  1  0  0  0  0
 15 16  2  0  0  0  0
 15 36  1  0  0  0  0
 16 37  1  0  0  0  0
 17 19  1  0  0  0  0
 17 38  1  0  0  0  0
 18 19  2  0  0  0  0
 18 39  1  0  0  0  0
 19 40  1  0  0  0  0
M  END
$$$$
Propranolol
  unicon  03102511263D 1   1.00000     0.00000     0
unicon 1.5.0
 40 41  0  0  0  0            999 V2000
    1.3339    3.4865    0.0098 O   0  0  0  0  0  0  0  0  0  0  0  0
    2.7841    2.1026    1.9563 O   0  0  0  0  0  0  0  0  0  0  0  0
    4.2345   -0.2507    1.2041 N   0  0  0  0  0  0  0  0  0  0  0  0
    2.7506    1.6406    0.6030 C   0  0  1  0  0  0  0  0  0  0  0  0
    2.9583    0.1243    0.6107 C   0  0  0  0  0  0  0  0  0  0  0  0
    5.3221   -0.0834    0.2497 C   0  0  0  0  0  0  0  0  0  0  0  0
    1.4257    2.0654   -0.0264 C   0  0  0  0  0  0  0  0  0  0  0  0
    5.5734    1.3990   -0.0116 C   0  0  0  0  0  0  0  0  0  0  0  0
    4.9807   -0.8175   -1.0432 C   0  0  0  0  0  0  0  0  0  0  0  0
    0.9572    4.0451    1.1810 C   0  0  0  0  0  0  0  0  0  0  0  0
    0.8315    5.4230    1.3407 C   0  0  0  0  0  0  0  0  0  0  0  0
    0.4383    5.9443    2.5697 C   0  0  0  0  0  0  0  0  0  0  0  0
    0.6893    3.1939    2.2483 C   0  0  0  0  0  0  0  0  0  0  0  0
    1.0904    6.3047    0.2943 C   0  0  0  0  0  0  0  0  0  0  0  0
    0.1690    5.1039    3.6446 C   0  0  0  0  0  0  0  0  0  0  0  0
    0.2985    3.7296    3.4710 C   0  0  0  0  0  0  0  0  0  0  0  0
    0.3107    7.3193    2.7371 C   0  0  0  0  0  0  0  0  0  0  0  0
    0.9664    7.6815    0.4480 C   0  0  0  0  0  0  0  0  0  0  0  0
    0.5733    8.1867    1.6825 C   0  0  0  0  0  0  0  0  0  0  0  0
    3.5004    2.0671    0.0971 H   0  0  0  0  0  0  0  0  0  0  0  0
    2.2211   -0.2995    1.1369 H   0  0  0  0  0  0  0  0  0  0  0  0
    2.9301   -0.2098   -0.3314 H   0  0  0  0  0  0  0  0  0  0  0  0
    6.1521   -0.4855    0.6365 H   0  0  0  0  0  0  0  0  0  0  0  0
    4.1939   -1.2083    1.4894 H   0  0  0  0  0  0  0  0  0  0  0  0
    1.3881    1.7504   -0.9748 H   0  0  0  0  0  0  0  0  0  0  0  0
    0.6664    1.6665    0.4877 H   0  0  0  0  0  0  0  0  0  0  0  0
    6.3214    1.4997   -0.6676 H   0  0  0  0  0  0  0  0  0  0  0  0
    4.7448    1.8169   -0.3840 H   0  0  0  0  0  0  0  0  0  0  0  0
    5.8187    1.8517    0.8457 H   0  0  0  0  0  0  0  0  0  0  0  0
    5.7272   -0.7028   -1.6987 H   0  0  0  0  0  0  0  0  0  0  0  0
    4.8529   -1.7903   -0.8504 H   0  0  0  0  0  0  0  0  0  0  0  0
    4.1383   -0.4404   -1.4281 H   0  0  0  0  0  0  0  0  0  0  0  0
    2.6500    3.0934    1.9737 H   0  0  0  0  0  0  0  0  0  0  0  0
    0.7769    2.2040    2.1372 H   0  0  0  0  0  0  0  0  0  0  0  0
    1.3732    5.9379   -0.5920 H   0  0  0  0  0  0  0  0  0  0  0  0
   -0.1129    5.4809    4.5269 H   0  0  0  0  0  0  0  0  0  0  0  0
    0.1075    3.1169    4.2379 H   0  0  0  0  0  0  0  0  0  0  0  0
    0.0278    7.6869    3.6230 H   0  0  0  0  0  0  0  0  0  0  0  0
    1.1567    8.2976   -0.3163 H   0  0  0  0  0  0  0  0  0  0  0  0
    0.4794    9.1738    1.8118 H   0  0  0  0  0  0  0  0  0  0  0  0
  1  7  1  0  0  0  0
  1 10  1  0  0  0  0
  2  4  1  0  0  0  0
  2 33  1  0  0  0  0
  3  5  1  0  0  0  0
  3  6  1  0  0  0  0
  3 24  1  0  0  0  0
  4  5  1  0  0  0  0
  4  7  1  0  0  0  0
  4 20  1  0  0  0  0
  5 21  1  0  0  0  0
  5 22  1  0  0  0  0
  6  8  1  0  0  0  0
  6  9  1  0  0  0  0
  6 23  1  0  0  0  0
  7 25  1  0  0  0  0
  7 26  1  0  0  0  0
  8 27  1  0  0  0  0
  8 28  1  0  0  0  0
  8 29  1  0  0  0  0
  9 30  1  0  0  0  0
  9 31  1  0  0  0  0
  9 32  1  0  0  0  0
 10 11  1  0  0  0  0
 10 13  2  0  0  0  0
 11 12  1  0  0  0  0
 11 14  2  0  0  0  0
 12 15  1  0  0  0  0
 12 17  2  0  0  0  0
 13 16  1  0  0  0  0
 13 34  1  0  0  0  0
 14 18  1  0  0  0  0
 14 35  1  0  0  0  0
 15 16  2  0  0  0  0
 15 36  1  0  0  0  0
 16 37  1  0  0  0  0
 17 19  1  0  0  0  0
 17 38  1  0  0  0  0
 18 19  2  0  0  0  0
 18 39  1  0  0  0  0
 19 40  1  0  0  0  0
M  END
$$$$
Propranolol
  unicon  03102511263D 1   1.00000     0.00000     0
unicon 1.5.0
 40 41  0  0  0  0            999 V2000
    0.4307    2.1241    0.9914 O   0  0  0  0  0  0  0  0  0  0  0  0
    2.7841    2.1026    1.9563 O   0  0  0  0  0  0  0  0  0  0  0  0
    1.9241   -0.5664    1.3691 N   0  0  0  0  0  0  0  0  0  0  0  0
    2.7506    1.6406    0.6030 C   0  0  1  0  0  0  0  0  0  0  0  0
    2.9583    0.1243    0.6107 C   0  0  0  0  0  0  0  0  0  0  0  0
    0.7093   -0.7136    0.5790 C   0  0  0  0  0  0  0  0  0  0  0  0
    1.4257    2.0654   -0.0264 C   0  0  0  0  0  0  0  0  0  0  0  0
   -0.3630   -1.4385    1.3876 C   0  0  0  0  0  0  0  0  0  0  0  0
    1.0286   -1.4679   -0.7078 C   0  0  0  0  0  0  0  0  0  0  0  0
   -0.8137    2.4865    0.6097 C   0  0  0  0  0  0  0  0  0  0  0  0
   -1.8702    2.5799    1.5123 C   0  0  0  0  0  0  0  0  0  0  0  0
   -3.1318    2.9598    1.0643 C   0  0  0  0  0  0  0  0  0  0  0  0
   -1.0209    2.7732   -0.7358 C   0  0  0  0  0  0  0  0  0  0  0  0
   -1.6991    2.3016    2.8661 C   0  0  0  0  0  0  0  0  0  0  0  0
   -3.3521    3.2476   -0.2785 C   0  0  0  0  0  0  0  0  0  0  0  0
   -2.2877    3.1503   -1.1691 C   0  0  0  0  0  0  0  0  0  0  0  0
   -4.1921    3.0552    1.9595 C   0  0  0  0  0  0  0  0  0  0  0  0
   -2.7506    2.3933    3.7720 C   0  0  0  0  0  0  0  0  0  0  0  0
   -4.0053    2.7734    3.3083 C   0  0  0  0  0  0  0  0  0  0  0  0
    3.5004    2.0671    0.0971 H   0  0  0  0  0  0  0  0  0  0  0  0
    2.9429   -0.2081   -0.3323 H   0  0  0  0  0  0  0  0  0  0  0  0
    3.8478   -0.0773    1.0207 H   0  0  0  0  0  0  0  0  0  0  0  0
    0.3700    0.1964    0.3409 H   0  0  0  0  0  0  0  0  0  0  0  0
    1.7164   -0.0400    2.1936 H   0  0  0  0  0  0  0  0  0  0  0  0
    1.5279    2.9661   -0.4486 H   0  0  0  0  0  0  0  0  0  0  0  0
    1.1557    1.3998   -0.7222 H   0  0  0  0  0  0  0  0  0  0  0  0
   -1.1907   -1.5330    0.8344 H   0  0  0  0  0  0  0  0  0  0  0  0
   -0.0296   -2.3452    1.6461 H   0  0  0  0  0  0  0  0  0  0  0  0
   -0.5713   -0.9124    2.2121 H   0  0  0  0  0  0  0  0  0  0  0  0
    0.1947   -1.5692   -1.2505 H   0  0  0  0  0  0  0  0  0  0  0  0
    1.7085   -0.9569   -1.2338 H   0  0  0  0  0  0  0  0  0  0  0  0
    1.3918   -2.3720   -0.4829 H   0  0  0  0  0  0  0  0  0  0  0  0
    2.6500    3.0934    1.9737 H   0  0  0  0  0  0  0  0  0  0  0  0
   -0.2645    2.7088   -1.3867 H   0  0  0  0  0  0  0  0  0  0  0  0
   -0.7955    2.0282    3.1959 H   0  0  0  0  0  0  0  0  0  0  0  0
   -4.2597    3.5198   -0.5982 H   0  0  0  0  0  0  0  0  0  0  0  0
   -2.4358    3.3548   -2.1367 H   0  0  0  0  0  0  0  0  0  0  0  0
   -5.0960    3.3286    1.6305 H   0  0  0  0  0  0  0  0  0  0  0  0
   -2.6067    2.1894    4.7403 H   0  0  0  0  0  0  0  0  0  0  0  0
   -4.7732    2.8441    3.9449 H   0  0  0  0  0  0  0  0  0  0  0  0
  1  7  1  0  0  0  0
  1 10  1  0  0  0  0
  2  4  1  0  0  0  0
  2 33  1  0  0  0  0
  3  5  1  0  0  0  0
  3  6  1  0  0  0  0
  3 24  1  0  0  0  0
  4  5  1  0  0  0  0
  4  7  1  0  0  0  0
  4 20  1  0  0  0  0
  5 21  1  0  0  0  0
  5 22  1  0  0  0  0
  6  8  1  0  0  0  0
  6  9  1  0  0  0  0
  6 23  1  0  0  0  0
  7 25  1  0  0  0  0
  7 26  1  0  0  0  0
  8 27  1  0  0  0  0
  8 28  1  0  0  0  0
  8 29  1  0  0  0  0
  9 30  1  0  0  0  0
  9 31  1  0  0  0  0
  9 32  1  0  0  0  0
 10 11  1  0  0  0  0
 10 13  2  0  0  0  0
 11 12  1  0  0  0  0
 11 14  2  0  0  0  0
 12 15  1  0  0  0  0
 12 17  2  0  0  0  0
 13 16  1  0  0  0  0
 13 34  1  0  0  0  0
 14 18  1  0  0  0  0
 14 35  1  0  0  0  0
 15 16  2  0  0  0  0
 15 36  1  0  0  0  0
 16 37  1  0  0  0  0
 17 19  1  0  0  0  0
 17 38  1  0  0  0  0
 18 19  2  0  0  0  0
 18 39  1  0  0  0  0
 19 40  1  0  0  0  0
M  END
$$$$
Propranolol
  unicon  03102511263D 1   1.00000     0.00000     0
unicon 1.5.0
 40 41  0  0  0  0            999 V2000
    0.4307    2.1241    0.9914 O   0  0  0  0  0  0  0  0  0  0  0  0
    2.7841    2.1026    1.9563 O   0  0  0  0  0  0  0  0  0  0  0  0
    1.9241   -0.5664    1.3691 N   0  0  0  0  0  0  0  0  0  0  0  0
    2.7506    1.6406    0.6030 C   0  0  1  0  0  0  0  0  0  0  0  0
    2.9583    0.1243    0.6107 C   0  0  0  0  0  0  0  0  0  0  0  0
    0.7093   -0.7136    0.5790 C   0  0  0  0  0  0  0  0  0  0  0  0
    1.4257    2.0654   -0.0264 C   0  0  0  0  0  0  0  0  0  0  0  0
   -0.3630   -1.4385    1.3876 C   0  0  0  0  0  0  0  0  0  0  0  0
    1.0286   -1.4679   -0.7078 C   0  0  0  0  0  0  0  0  0  0  0  0
    0.4162    3.2289    1.7691 C   0  0  0  0  0  0  0  0  0  0  0  0
   -0.5080    3.4022    2.7966 C   0  0  0  0  0  0  0  0  0  0  0  0
   -0.4762    4.5600    3.5681 C   0  0  0  0  0  0  0  0  0  0  0  0
    1.3682    4.2114    1.5168 C   0  0  0  0  0  0  0  0  0  0  0  0
   -1.4740    2.4394    3.0782 C   0  0  0  0  0  0  0  0  0  0  0  0
    0.4696    5.5502    3.3248 C   0  0  0  0  0  0  0  0  0  0  0  0
    1.3868    5.3639    2.2953 C   0  0  0  0  0  0  0  0  0  0  0  0
   -1.3959    4.7406    4.5958 C   0  0  0  0  0  0  0  0  0  0  0  0
   -2.3993    2.6072    4.1031 C   0  0  0  0  0  0  0  0  0  0  0  0
   -2.3548    3.7700    4.8643 C   0  0  0  0  0  0  0  0  0  0  0  0
    3.5004    2.0671    0.0971 H   0  0  0  0  0  0  0  0  0  0  0  0
    2.9429   -0.2081   -0.3323 H   0  0  0  0  0  0  0  0  0  0  0  0
    3.8478   -0.0773    1.0207 H   0  0  0  0  0  0  0  0  0  0  0  0
    0.3700    0.1964    0.3409 H   0  0  0  0  0  0  0  0  0  0  0  0
    1.7164   -0.0400    2.1936 H   0  0  0  0  0  0  0  0  0  0  0  0
    1.5279    2.9661   -0.4486 H   0  0  0  0  0  0  0  0  0  0  0  0
    1.1557    1.3998   -0.7222 H   0  0  0  0  0  0  0  0  0  0  0  0
   -1.1907   -1.5330    0.8344 H   0  0  0  0  0  0  0  0  0  0  0  0
   -0.0296   -2.3452    1.6461 H   0  0  0  0  0  0  0  0  0  0  0  0
   -0.5713   -0.9124    2.2121 H   0  0  0  0  0  0  0  0  0  0  0  0
    0.1947   -1.5692   -1.2505 H   0  0  0  0  0  0  0  0  0  0  0  0
    1.7085   -0.9569   -1.2338 H   0  0  0  0  0  0  0  0  0  0  0  0
    1.3918   -2.3720   -0.4829 H   0  0  0  0  0  0  0  0  0  0  0  0
    2.6500    3.0934    1.9737 H   0  0  0  0  0  0  0  0  0  0  0  0
    2.0343    4.0900    0.7809 H   0  0  0  0  0  0  0  0  0  0  0  0
   -1.5032    1.6046    2.5285 H   0  0  0  0  0  0  0  0  0  0  0  0
    0.4901    6.3816    3.8801 H   0  0  0  0  0  0  0  0  0  0  0  0
    2.0706    6.0702    2.1121 H   0  0  0  0  0  0  0  0  0  0  0  0
   -1.3673    5.5751    5.1461 H   0  0  0  0  0  0  0  0  0  0  0  0
   -3.0849    1.9034    4.2893 H   0  0  0  0  0  0  0  0  0  0  0  0
   -3.0124    3.9083    5.6049 H   0  0  0  0  0  0  0  0  0  0  0  0
  1  7  1  0  0  0  0
  1 10  1  0  0  0  0
  2  4  1  0  0  0  0
  2 33  1  0  0  0  0
  3  5  1  0  0  0  0
  3  6  1  0  0  0  0
  3 24  1  0  0  0  0
  4  5  1  0  0  0  0
  4  7  1  0  0  0  0
  4 20  1  0  0  0  0
  5 21  1  0  0  0  0
  5 22  1  0  0  0  0
  6  8  1  0  0  0  0
  6  9  1  0  0  0  0
  6 23  1  0  0  0  0
  7 25  1  0  0  0  0
  7 26  1  0  0  0  0
  8 27  1  0  0  0  0
  8 28  1  0  0  0  0
  8 29  1  0  0  0  0
  9 30  1  0  0  0  0
  9 31  1  0  0  0  0
  9 32  1  0  0  0  0
 10 11  1  0  0  0  0
 10 13  2  0  0  0  0
 11 12  1  0  0  0  0
 11 14  2  0  0  0  0
 12 15  1  0  0  0  0
 12 17  2  0  0  0  0
 13 16  1  0  0  0  0
 13 34  1  0  0  0  0
 14 18  1  0  0  0  0
 14 35  1  0  0  0  0
 15 16  2  0  0  0  0
 15 36  1  0  0  0  0
 16 37  1  0  0  0  0
 17 19  1  0  0  0  0
 17 38  1  0  0  0  0
 18 19  2  0  0  0  0
 18 39  1  0  0  0  0
 19 40  1  0  0  0  0
M  END
$$$$
Propranolol
  unicon  03102511263D 1   1.00000     0.00000     0
unicon 1.5.0
 40 41  0  0  0  0            999 V2000
    1.0583    1.1081   -1.0153 O   0  0  0  0  0  0  0  0  0  0  0  0
    2.7841    2.1026    1.9563 O   0  0  0  0  0  0  0  0  0  0  0  0
    1.9241   -0.5664    1.3691 N   0  0  0  0  0  0  0  0  0  0  0  0
    2.7506    1.6406    0.6030 C   0  0  1  0  0  0  0  0  0  0  0  0
    2.9583    0.1243    0.6107 C   0  0  0  0  0  0  0  0  0  0  0  0
    0.7093   -0.7136    0.5790 C   0  0  0  0  0  0  0  0  0  0  0  0
    1.4257    2.0654   -0.0264 C   0  0  0  0  0  0  0  0  0  0  0  0
   -0.3630   -1.4385    1.3876 C   0  0  0  0  0  0  0  0  0  0  0  0
    1.0286   -1.4679   -0.7078 C   0  0  0  0  0  0  0  0  0  0  0  0
   -0.0979    1.3278   -1.6790 C   0  0  0  0  0  0  0  0  0  0  0  0
   -0.5631    0.4638   -2.6675 C   0  0  0  0  0  0  0  0  0  0  0  0
   -1.7622    0.7381   -3.3182 C   0  0  0  0  0  0  0  0  0  0  0  0
   -0.8320    2.4611   -1.3441 C   0  0  0  0  0  0  0  0  0  0  0  0
    0.1447   -0.6802   -3.0277 C   0  0  0  0  0  0  0  0  0  0  0  0
   -2.5045    1.8686   -2.9934 C   0  0  0  0  0  0  0  0  0  0  0  0
   -2.0281    2.7229   -2.0041 C   0  0  0  0  0  0  0  0  0  0  0  0
   -2.2333   -0.1197   -4.3066 C   0  0  0  0  0  0  0  0  0  0  0  0
   -0.3150   -1.5465   -4.0139 C   0  0  0  0  0  0  0  0  0  0  0  0
   -1.5147   -1.2579   -4.6553 C   0  0  0  0  0  0  0  0  0  0  0  0
    3.5004    2.0671    0.0971 H   0  0  0  0  0  0  0  0  0  0  0  0
    2.9429   -0.2081   -0.3323 H   0  0  0  0  0  0  0  0  0  0  0  0
    3.8478   -0.0773    1.0207 H   0  0  0  0  0  0  0  0  0  0  0  0
    0.3700    0.1964    0.3409 H   0  0  0  0  0  0  0  0  0  0  0  0
    1.7164   -0.0400    2.1936 H   0  0  0  0  0  0  0  0  0  0  0  0
    0.7176    2.1089    0.6784 H   0  0  0  0  0  0  0  0  0  0  0  0
    1.5287    2.9647   -0.4513 H   0  0  0  0  0  0  0  0  0  0  0  0
   -1.1907   -1.5330    0.8344 H   0  0  0  0  0  0  0  0  0  0  0  0
   -0.0296   -2.3452    1.6461 H   0  0  0  0  0  0  0  0  0  0  0  0
   -0.5713   -0.9124    2.2121 H   0  0  0  0  0  0  0  0  0  0  0  0
    0.1947   -1.5692   -1.2505 H   0  0  0  0  0  0  0  0  0  0  0  0
    1.7085   -0.9569   -1.2338 H   0  0  0  0  0  0  0  0  0  0  0  0
    1.3918   -2.3720   -0.4829 H   0  0  0  0  0  0  0  0  0  0  0  0
    2.6500    3.0934    1.9737 H   0  0  0  0  0  0  0  0  0  0  0  0
   -0.5021    3.0830   -0.6339 H   0  0  0  0  0  0  0  0  0  0  0  0
    1.0072   -0.8844   -2.5646 H   0  0  0  0  0  0  0  0  0  0  0  0
   -3.3656    2.0639   -3.4628 H   0  0  0  0  0  0  0  0  0  0  0  0
   -2.5542    3.5386   -1.7635 H   0  0  0  0  0  0  0  0  0  0  0  0
   -3.0958    0.0837   -4.7701 H   0  0  0  0  0  0  0  0  0  0  0  0
    0.2082   -2.3631   -4.2576 H   0  0  0  0  0  0  0  0  0  0  0  0
   -1.8605   -1.8690   -5.3673 H   0  0  0  0  0  0  0  0  0  0  0  0
  1  7  1  0  0  0  0
  1 10  1  0  0  0  0
  2  4  1  0  0  0  0
  2 33  1  0  0  0  0
  3  5  1  0  0  0  0
  3  6  1  0  0  0  0
  3 24  1  0  0  0  0
  4  5  1  0  0  0  0
  4  7  1  0  0  0  0
  4 20  1  0  0  0  0
  5 21  1  0  0  0  0
  5 22  1  0  0  0  0
  6  8  1  0  0  0  0
  6  9  1  0  0  0  0
  6 23  1  0  0  0  0
  7 25  1  0  0  0  0
  7 26  1  0  0  0  0
  8 27  1  0  0  0  0
  8 28  1  0  0  0  0
  8 29  1  0  0  0  0
  9 30  1  0  0  0  0
  9 31  1  0  0  0  0
  9 32  1  0  0  0  0
 10 11  1  0  0  0  0
 10 13  2  0  0  0  0
 11 12  1  0  0  0  0
 11 14  2  0  0  0  0
 12 15  1  0  0  0  0
 12 17  2  0  0  0  0
 13 16  1  0  0  0  0
 13 34  1  0  0  0  0
 14 18  1  0  0  0  0
 14 35  1  0  0  0  0
 15 16  2  0  0  0  0
 15 36  1  0  0  0  0
 16 37  1  0  0  0  0
 17 19  1  0  0  0  0
 17 38  1  0  0  0  0
 18 19  2  0  0  0  0
 18 39  1  0  0  0  0
 19 40  1  0  0  0  0
M  END
$$$$
Propranolol
  unicon  03102511263D 1   1.00000     0.00000     0
unicon 1.5.0
 40 41  0  0  0  0            999 V2000
    1.0583    1.1081   -1.0153 O   0  0  0  0  0  0  0  0  0  0  0  0
    2.7841    2.1026    1.9563 O   0  0  0  0  0  0  0  0  0  0  0  0
    1.9241   -0.5664    1.3691 N   0  0  0  0  0  0  0  0  0  0  0  0
    2.7506    1.6406    0.6030 C   0  0  1  0  0  0  0  0  0  0  0  0
    2.9583    0.1243    0.6107 C   0  0  0  0  0  0  0  0  0  0  0  0
    0.7093   -0.7136    0.5790 C   0  0  0  0  0  0  0  0  0  0  0  0
    1.4257    2.0654   -0.0264 C   0  0  0  0  0  0  0  0  0  0  0  0
   -0.3630   -1.4385    1.3876 C   0  0  0  0  0  0  0  0  0  0  0  0
    1.0286   -1.4679   -0.7078 C   0  0  0  0  0  0  0  0  0  0  0  0
    1.6634    1.2098   -2.2191 C   0  0  0  0  0  0  0  0  0  0  0  0
    1.3879    0.3331   -3.2657 C   0  0  0  0  0  0  0  0  0  0  0  0
    2.0397    0.4852   -4.4858 C   0  0  0  0  0  0  0  0  0  0  0  0
    2.5876    2.2346   -2.3952 C   0  0  0  0  0  0  0  0  0  0  0  0
    0.4681   -0.7032   -3.1256 C   0  0  0  0  0  0  0  0  0  0  0  0
    2.9667    1.5048   -4.6739 C   0  0  0  0  0  0  0  0  0  0  0  0
    3.2322    2.3733   -3.6200 C   0  0  0  0  0  0  0  0  0  0  0  0
    1.7701   -0.3864   -5.5358 C   0  0  0  0  0  0  0  0  0  0  0  0
    0.1889   -1.5815   -4.1673 C   0  0  0  0  0  0  0  0  0  0  0  0
    0.8493   -1.4166   -5.3799 C   0  0  0  0  0  0  0  0  0  0  0  0
    3.5004    2.0671    0.0971 H   0  0  0  0  0  0  0  0  0  0  0  0
    2.9429   -0.2081   -0.3323 H   0  0  0  0  0  0  0  0  0  0  0  0
    3.8478   -0.0773    1.0207 H   0  0  0  0  0  0  0  0  0  0  0  0
    0.3700    0.1964    0.3409 H   0  0  0  0  0  0  0  0  0  0  0  0
    1.7164   -0.0400    2.1936 H   0  0  0  0  0  0  0  0  0  0  0  0
    0.7176    2.1089    0.6784 H   0  0  0  0  0  0  0  0  0  0  0  0
    1.5287    2.9647   -0.4513 H   0  0  0  0  0  0  0  0  0  0  0  0
   -1.1907   -1.5330    0.8344 H   0  0  0  0  0  0  0  0  0  0  0  0
   -0.0296   -2.3452    1.6461 H   0  0  0  0  0  0  0  0  0  0  0  0
   -0.5713   -0.9124    2.2121 H   0  0  0  0  0  0  0  0  0  0  0  0
    0.1947   -1.5692   -1.2505 H   0  0  0  0  0  0  0  0  0  0  0  0
    1.7085   -0.9569   -1.2338 H   0  0  0  0  0  0  0  0  0  0  0  0
    1.3918   -2.3720   -0.4829 H   0  0  0  0  0  0  0  0  0  0  0  0
    2.6500    3.0934    1.9737 H   0  0  0  0  0  0  0  0  0  0  0  0
    2.7870    2.8670   -1.6467 H   0  0  0  0  0  0  0  0  0  0  0  0
   -0.0046   -0.8190   -2.2520 H   0  0  0  0  0  0  0  0  0  0  0  0
    3.4343    1.6117   -5.5514 H   0  0  0  0  0  0  0  0  0  0  0  0
    3.8975    3.1094   -3.7450 H   0  0  0  0  0  0  0  0  0  0  0  0
    2.2423   -0.2713   -6.4097 H   0  0  0  0  0  0  0  0  0  0  0  0
   -0.4754   -2.3191   -4.0462 H   0  0  0  0  0  0  0  0  0  0  0  0
    0.6619   -2.0389   -6.1399 H   0  0  0  0  0  0  0  0  0  0  0  0
  1  7  1  0  0  0  0
  1 10  1  0  0  0  0
  2  4  1  0  0  0  0
  2 33  1  0  0  0  0
  3  5  1  0  0  0  0
  3  6  1  0  0  0  0
  3 24  1  0  0  0  0
  4  5  1  0  0  0  0
  4  7  1  0  0  0  0
  4 20  1  0  0  0  0
  5 21  1  0  0  0  0
  5 22  1  0  0  0  0
  6  8  1  0  0  0  0
  6  9  1  0  0  0  0
  6 23  1  0  0  0  0
  7 25  1  0  0  0  0
  7 26  1  0  0  0  0
  8 27  1  0  0  0  0
  8 28  1  0  0  0  0
  8 29  1  0  0  0  0
  9 30  1  0  0  0  0
  9 31  1  0  0  0  0
  9 32  1  0  0  0  0
 10 11  1  0  0  0  0
 10 13  2  0  0  0  0
 11 12  1  0  0  0  0
 11 14  2  0  0  0  0
 12 15  1  0  0  0  0
 12 17  2  0  0  0  0
 13 16  1  0  0  0  0
 13 34  1  0  0  0  0
 14 18  1  0  0  0  0
 14 35  1  0  0  0  0
 15 16  2  0  0  0  0
 15 36  1  0  0  0  0
 16 37  1  0  0  0  0
 17 19  1  0  0  0  0
 17 38  1  0  0  0  0
 18 19  2  0  0  0  0
 18 39  1  0  0  0  0
 19 40  1  0  0  0  0
M  END
$$$$
Propranolol
  unicon  03102511263D 1   1.00000     0.00000     0
unicon 1.5.0
 40 41  0  0  0  0            999 V2000
    1.3339    3.4865    0.0098 O   0  0  0  0  0  0  0  0  0  0  0  0
    2.7841    2.1026    1.9563 O   0  0  0  0  0  0  0  0  0  0  0  0
    1.9241   -0.5664    1.3691 N   0  0  0  0  0  0  0  0  0  0  0  0
    2.7506    1.6406    0.6030 C   0  0  1  0  0  0  0  0  0  0  0  0
    2.9583    0.1243    0.6107 C   0  0  0  0  0  0  0  0  0  0  0  0
    0.7093   -0.7136    0.5790 C   0  0  0  0  0  0  0  0  0  0  0  0
    1.4257    2.0654   -0.0264 C   0  0  0  0  0  0  0  0  0  0  0  0
   -0.3630   -1.4385    1.3876 C   0  0  0  0  0  0  0  0  0  0  0  0
    1.0286   -1.4679   -0.7078 C   0  0  0  0  0  0  0  0  0  0  0  0
    0.9572    4.0451    1.1810 C   0  0  0  0  0  0  0  0  0  0  0  0
    0.8315    5.4230    1.3407 C   0  0  0  0  0  0  0  0  0  0  0  0
    0.4383    5.9443    2.5697 C   0  0  0  0  0  0  0  0  0  0  0  0
    0.6893    3.1939    2.2483 C   0  0  0  0  0  0  0  0  0  0  0  0
    1.0904    6.3047    0.2943 C   0  0  0  0  0  0  0  0  0  0  0  0
    0.1690    5.1039    3.6446 C   0  0  0  0  0  0  0  0  0  0  0  0
    0.2985    3.7296    3.4710 C   0  0  0  0  0  0  0  0  0  0  0  0
    0.3107    7.3193    2.7371 C   0  0  0  0  0  0  0  0  0  0  0  0
    0.9664    7.6815    0.4480 C   0  0  0  0  0  0  0  0  0  0  0  0
    0.5733    8.1867    1.6825 C   0  0  0  0  0  0  0  0  0  0  0  0
    3.5004    2.0671    0.0971 H   0  0  0  0  0  0  0  0  0  0  0  0
    2.9429   -0.2081   -0.3323 H   0  0  0  0  0  0  0  0  0  0  0  0
    3.8478   -0.0773    1.0207 H   0  0  0  0  0  0  0  0  0  0  0  0
    0.3700    0.1964    0.3409 H   0  0  0  0  0  0  0  0  0  0  0  0
    1.7164   -0.0400    2.1936 H   0  0  0  0  0  0  0  0  0  0  0  0
    1.3881    1.7504   -0.9748 H   0  0  0  0  0  0  0  0  0  0  0  0
    0.6664    1.6665    0.4877 H   0  0  0  0  0  0  0  0  0  0  0  0
   -1.1907   -1.5330    0.8344 H   0  0  0  0  0  0  0  0  0  0  0  0
   -0.0296   -2.3452    1.6461 H   0  0  0  0  0  0  0  0  0  0  0  0
   -0.5713   -0.9124    2.2121 H   0  0  0  0  0  0  0  0  0  0  0  0
    0.1947   -1.5692   -1.2505 H   0  0  0  0  0  0  0  0  0  0  0  0
    1.7085   -0.9569   -1.2338 H   0  0  0  0  0  0  0  0  0  0  0  0
    1.3918   -2.3720   -0.4829 H   0  0  0  0  0  0  0  0  0  0  0  0
    2.6500    3.0934    1.9737 H   0  0  0  0  0  0  0  0  0  0  0  0
    0.7769    2.2040    2.1372 H   0  0  0  0  0  0  0  0  0  0  0  0
    1.3732    5.9379   -0.5920 H   0  0  0  0  0  0  0  0  0  0  0  0
   -0.1129    5.4809    4.5269 H   0  0  0  0  0  0  0  0  0  0  0  0
    0.1075    3.1169    4.2379 H   0  0  0  0  0  0  0  0  0  0  0  0
    0.0278    7.6869    3.6230 H   0  0  0  0  0  0  0  0  0  0  0  0
    1.1567    8.2976   -0.3163 H   0  0  0  0  0  0  0  0  0  0  0  0
    0.4794    9.1738    1.8118 H   0  0  0  0  0  0  0  0  0  0  0  0
  1  7  1  0  0  0  0
  1 10  1  0  0  0  0
  2  4  1  0  0  0  0
  2 33  1  0  0  0  0
  3  5  1  0  0  0  0
  3  6  1  0  0  0  0
  3 24  1  0  0  0  0
  4  5  1  0  0  0  0
  4  7  1  0  0  0  0
  4 20  1  0  0  0  0
  5 21  1  0  0  0  0
  5 22  1  0  0  0  0
  6  8  1  0  0  0  0
  6  9  1  0  0  0  0
  6 23  1  0  0  0  0
  7 25  1  0  0  0  0
  7 26  1  0  0  0  0
  8 27  1  0  0  0  0
  8 28  1  0  0  0  0
  8 29  1  0  0  0  0
  9 30  1  0  0  0  0
  9 31  1  0  0  0  0
  9 32  1  0  0  0  0
 10 11  1  0  0  0  0
 10 13  2  0  0  0  0
 11 12  1  0  0  0  0
 11 14  2  0  0  0  0
 12 15  1  0  0  0  0
 12 17  2  0  0  0  0
 13 16  1  0  0  0  0
 13 34  1  0  0  0  0
 14 18  1  0  0  0  0
 14 35  1  0  0  0  0
 15 16  2  0  0  0  0
 15 36  1  0  0  0  0
 16 37  1  0  0  0  0
 17 19  1  0  0  0  0
 17 38  1  0  0  0  0
 18 19  2  0  0  0  0
 18 39  1  0  0  0  0
 19 40  1  0  0  0  0
M  END
$$$$
Propranolol
  unicon  03102511263D 1   1.00000     0.00000     0
unicon 1.5.0
 40 41  0  0  0  0            999 V2000
    0.3569    1.4868    0.7167 O   0  0  0  0  0  0  0  0  0  0  0  0
    2.7841    2.1026    1.9563 O   0  0  0  0  0  0  0  0  0  0  0  0
    1.9241   -0.5664    1.3691 N   0  0  0  0  0  0  0  0  0  0  0  0
    2.7506    1.6406    0.6030 C   0  0  1  0  0  0  0  0  0  0  0  0
    2.9583    0.1243    0.6107 C   0  0  0  0  0  0  0  0  0  0  0  0
    2.3675   -1.8969    1.7627 C   0  0  0  0  0  0  0  0  0  0  0  0
    1.4257    2.0654   -0.0264 C   0  0  0  0  0  0  0  0  0  0  0  0
    2.4574   -2.8074    0.5413 C   0  0  0  0  0  0  0  0  0  0  0  0
    1.4059   -2.4662    2.8010 C   0  0  0  0  0  0  0  0  0  0  0  0
   -0.8979    1.7597    0.2964 C   0  0  0  0  0  0  0  0  0  0  0  0
   -2.0240    1.2525    0.9402 C   0  0  0  0  0  0  0  0  0  0  0  0
   -3.2936    1.5675    0.4650 C   0  0  0  0  0  0  0  0  0  0  0  0
   -1.0439    2.5793   -0.8182 C   0  0  0  0  0  0  0  0  0  0  0  0
   -1.9157    0.4302    2.0589 C   0  0  0  0  0  0  0  0  0  0  0  0
   -3.4527    2.3846   -0.6492 C   0  0  0  0  0  0  0  0  0  0  0  0
   -2.3191    2.8843   -1.2825 C   0  0  0  0  0  0  0  0  0  0  0  0
   -4.4231    1.0647    1.1023 C   0  0  0  0  0  0  0  0  0  0  0  0
   -3.0367   -0.0789    2.7058 C   0  0  0  0  0  0  0  0  0  0  0  0
   -4.2982    0.2444    2.2181 C   0  0  0  0  0  0  0  0  0  0  0  0
    3.5004    2.0671    0.0971 H   0  0  0  0  0  0  0  0  0  0  0  0
    2.9429   -0.2081   -0.3323 H   0  0  0  0  0  0  0  0  0  0  0  0
    3.8478   -0.0773    1.0207 H   0  0  0  0  0  0  0  0  0  0  0  0
    3.2759   -1.8228    2.1743 H   0  0  0  0  0  0  0  0  0  0  0  0
    1.1036   -0.6489    0.8034 H   0  0  0  0  0  0  0  0  0  0  0  0
    1.3483    3.0622   -0.0056 H   0  0  0  0  0  0  0  0  0  0  0  0
    1.3867    1.7477   -0.9738 H   0  0  0  0  0  0  0  0  0  0  0  0
    2.7624   -3.7165    0.8250 H   0  0  0  0  0  0  0  0  0  0  0  0
    1.5576   -2.8771    0.1106 H   0  0  0  0  0  0  0  0  0  0  0  0
    3.1110   -2.4253   -0.1120 H   0  0  0  0  0  0  0  0  0  0  0  0
    1.7100   -3.3797    3.0714 H   0  0  0  0  0  0  0  0  0  0  0  0
    1.3897   -1.8692    3.6031 H   0  0  0  0  0  0  0  0  0  0  0  0
    0.4876   -2.5230    2.4091 H   0  0  0  0  0  0  0  0  0  0  0  0
    2.6500    3.0934    1.9737 H   0  0  0  0  0  0  0  0  0  0  0  0
   -0.2378    2.9466   -1.2823 H   0  0  0  0  0  0  0  0  0  0  0  0
   -1.0069    0.1995    2.4066 H   0  0  0  0  0  0  0  0  0  0  0  0
   -4.3660    2.6090   -0.9892 H   0  0  0  0  0  0  0  0  0  0  0  0
   -2.4229    3.4723   -2.0846 H   0  0  0  0  0  0  0  0  0  0  0  0
   -5.3322    1.2951    0.7553 H   0  0  0  0  0  0  0  0  0  0  0  0
   -2.9373   -0.6676    3.5081 H   0  0  0  0  0  0  0  0  0  0  0  0
   -5.1156   -0.1129    2.6699 H   0  0  0  0  0  0  0  0  0  0  0  0
  1  7  1  0  0  0  0
  1 10  1  0  0  0  0
  2  4  1  0  0  0  0
  2 33  1  0  0  0  0
  3  5  1  0  0  0  0
  3  6  1  0  0  0  0
  3 24  1  0  0  0  0
  4  5  1  0  0  0  0
  4  7  1  0  0  0  0
  4 20  1  0  0  0  0
  5 21  1  0  0  0  0
  5 22  1  0  0  0  0
  6  8  1  0  0  0  0
  6  9  1  0  0  0  0
  6 23  1  0  0  0  0
  7 25  1  0  0  0  0
  7 26  1  0  0  0  0
  8 27  1  0  0  0  0
  8 28  1  0  0  0  0
  8 29  1  0  0  0  0
  9 30  1  0  0  0  0
  9 31  1  0  0  0  0
  9 32  1  0  0  0  0
 10 11  1  0  0  0  0
 10 13  2  0  0  0  0
 11 12  1  0  0  0  0
 11 14  2  0  0  0  0
 12 15  1  0  0  0  0
 12 17  2  0  0  0  0
 13 16  1  0  0  0  0
 13 34  1  0  0  0  0
 14 18  1  0  0  0  0
 14 35  1  0  0  0  0
 15 16  2  0  0  0  0
 15 36  1  0  0  0  0
 16 37  1  0  0  0  0
 17 19  1  0  0  0  0
 17 38  1  0  0  0  0
 18 19  2  0  0  0  0
 18 39  1  0  0  0  0
 19 40  1  0  0  0  0
M  END
$$$$
Propranolol
  unicon  03102511263D 1   1.00000     0.00000     0
unicon 1.5.0
 40 41  0  0  0  0            999 V2000
    0.4625    1.0389    0.1921 O   0  0  0  0  0  0  0  0  0  0  0  0
    2.7841    2.1026    1.9563 O   0  0  0  0  0  0  0  0  0  0  0  0
    1.9241   -0.5664    1.3691 N   0  0  0  0  0  0  0  0  0  0  0  0
    2.7506    1.6406    0.6030 C   0  0  1  0  0  0  0  0  0  0  0  0
    2.9583    0.1243    0.6107 C   0  0  0  0  0  0  0  0  0  0  0  0
    2.3675   -1.8969    1.7627 C   0  0  0  0  0  0  0  0  0  0  0  0
    1.4257    2.0654   -0.0264 C   0  0  0  0  0  0  0  0  0  0  0  0
    2.4574   -2.8074    0.5413 C   0  0  0  0  0  0  0  0  0  0  0  0
    1.4059   -2.4662    2.8010 C   0  0  0  0  0  0  0  0  0  0  0  0
    0.5116   -0.0309   -0.6318 C   0  0  0  0  0  0  0  0  0  0  0  0
   -0.3763   -1.0980   -0.5179 C   0  0  0  0  0  0  0  0  0  0  0  0
   -0.2812   -2.1741   -1.3951 C   0  0  0  0  0  0  0  0  0  0  0  0
    1.4897   -0.0425   -1.6210 C   0  0  0  0  0  0  0  0  0  0  0  0
   -1.3684   -1.1196    0.4592 C   0  0  0  0  0  0  0  0  0  0  0  0
    0.6932   -2.1982   -2.3873 C   0  0  0  0  0  0  0  0  0  0  0  0
    1.5734   -1.1256   -2.4896 C   0  0  0  0  0  0  0  0  0  0  0  0
   -1.1641   -3.2436   -1.2877 C   0  0  0  0  0  0  0  0  0  0  0  0
   -2.2578   -2.1824    0.5775 C   0  0  0  0  0  0  0  0  0  0  0  0
   -2.1491   -3.2506   -0.3062 C   0  0  0  0  0  0  0  0  0  0  0  0
    3.5004    2.0671    0.0971 H   0  0  0  0  0  0  0  0  0  0  0  0
    2.9429   -0.2081   -0.3323 H   0  0  0  0  0  0  0  0  0  0  0  0
    3.8478   -0.0773    1.0207 H   0  0  0  0  0  0  0  0  0  0  0  0
    3.2759   -1.8228    2.1743 H   0  0  0  0  0  0  0  0  0  0  0  0
    1.1036   -0.6489    0.8034 H   0  0  0  0  0  0  0  0  0  0  0  0
    1.1113    2.9162    0.3947 H   0  0  0  0  0  0  0  0  0  0  0  0
    1.5501    2.2057   -1.0087 H   0  0  0  0  0  0  0  0  0  0  0  0
    2.7624   -3.7165    0.8250 H   0  0  0  0  0  0  0  0  0  0  0  0
    1.5576   -2.8771    0.1106 H   0  0  0  0  0  0  0  0  0  0  0  0
    3.1110   -2.4253   -0.1120 H   0  0  0  0  0  0  0  0  0  0  0  0
    1.7100   -3.3797    3.0714 H   0  0  0  0  0  0  0  0  0  0  0  0
    1.3897   -1.8692    3.6031 H   0  0  0  0  0  0  0  0  0  0  0  0
    0.4876   -2.5230    2.4091 H   0  0  0  0  0  0  0  0  0  0  0  0
    2.6500    3.0934    1.9737 H   0  0  0  0  0  0  0  0  0  0  0  0
    2.1281    0.7225   -1.7069 H   0  0  0  0  0  0  0  0  0  0  0  0
   -1.4434   -0.3499    1.0932 H   0  0  0  0  0  0  0  0  0  0  0  0
    0.7599   -2.9729   -3.0161 H   0  0  0  0  0  0  0  0  0  0  0  0
    2.2778   -1.1336   -3.1994 H   0  0  0  0  0  0  0  0  0  0  0  0
   -1.0898   -4.0137   -1.9213 H   0  0  0  0  0  0  0  0  0  0  0  0
   -2.9634   -2.1785    1.2861 H   0  0  0  0  0  0  0  0  0  0  0  0
   -2.7793   -4.0238   -0.2358 H   0  0  0  0  0  0  0  0  0  0  0  0
  1  7  1  0  0  0  0
  1 10  1  0  0  0  0
  2  4  1  0  0  0  0
  2 33  1  0  0  0  0
  3  5  1  0  0  0  0
  3  6  1  0  0  0  0
  3 24  1  0  0  0  0
  4  5  1  0  0  0  0
  4  7  1  0  0  0  0
  4 20  1  0  0  0  0
  5 21  1  0  0  0  0
  5 22  1  0  0  0  0
  6  8  1  0  0  0  0
  6  9  1  0  0  0  0
  6 23  1  0  0  0  0
  7 25  1  0  0  0  0
  7 26  1  0  0  0  0
  8 27  1  0  0  0  0
  8 28  1  0  0  0  0
  8 29  1  0  0  0  0
  9 30  1  0  0  0  0
  9 31  1  0  0  0  0
  9 32  1  0  0  0  0
 10 11  1  0  0  0  0
 10 13  2  0  0  0  0
 11 12  1  0  0  0  0
 11 14  2  0  0  0  0
 12 15  1  0  0  0  0
 12 17  2  0  0  0  0
 13 16  1  0  0  0  0
 13 34  1  0  0  0  0
 14 18  1  0  0  0  0
 14 35  1  0  0  0  0
 15 16  2  0  0  0  0
 15 36  1  0  0  0  0
 16 37  1  0  0  0  0
 17 19  1  0  0  0  0
 17 38  1  0  0  0  0
 18 19  2  0  0  0  0
 18 39  1  0  0  0  0
 19 40  1  0  0  0  0
M  END
$$$$
Propranolol
  unicon  03102511263D 1   1.00000     0.00000     0
unicon 1.5.0
 40 41  0  0  0  0            999 V2000
    1.0583    1.1081   -1.0153 O   0  0  0  0  0  0  0  0  0  0  0  0
    2.7841    2.1026    1.9563 O   0  0  0  0  0  0  0  0  0  0  0  0
    1.9241   -0.5664    1.3691 N   0  0  0  0  0  0  0  0  0  0  0  0
    2.7506    1.6406    0.6030 C   0  0  1  0  0  0  0  0  0  0  0  0
    2.9583    0.1243    0.6107 C   0  0  0  0  0  0  0  0  0  0  0  0
    2.3675   -1.8969    1.7627 C   0  0  0  0  0  0  0  0  0  0  0  0
    1.4257    2.0654   -0.0264 C   0  0  0  0  0  0  0  0  0  0  0  0
    2.4574   -2.8074    0.5413 C   0  0  0  0  0  0  0  0  0  0  0  0
    1.4059   -2.4662    2.8010 C   0  0  0  0  0  0  0  0  0  0  0  0
   -0.0979    1.3278   -1.6790 C   0  0  0  0  0  0  0  0  0  0  0  0
   -0.5631    0.4638   -2.6675 C   0  0  0  0  0  0  0  0  0  0  0  0
   -1.7622    0.7381   -3.3182 C   0  0  0  0  0  0  0  0  0  0  0  0
   -0.8320    2.4611   -1.3441 C   0  0  0  0  0  0  0  0  0  0  0  0
    0.1447   -0.6802   -3.0277 C   0  0  0  0  0  0  0  0  0  0  0  0
   -2.5045    1.8686   -2.9934 C   0  0  0  0  0  0  0  0  0  0  0  0
   -2.0281    2.7229   -2.0041 C   0  0  0  0  0  0  0  0  0  0  0  0
   -2.2333   -0.1197   -4.3066 C   0  0  0  0  0  0  0  0  0  0  0  0
   -0.3150   -1.5465   -4.0139 C   0  0  0  0  0  0  0  0  0  0  0  0
   -1.5147   -1.2579   -4.6553 C   0  0  0  0  0  0  0  0  0  0  0  0
    3.5004    2.0671    0.0971 H   0  0  0  0  0  0  0  0  0  0  0  0
    2.9429   -0.2081   -0.3323 H   0  0  0  0  0  0  0  0  0  0  0  0
    3.8478   -0.0773    1.0207 H   0  0  0  0  0  0  0  0  0  0  0  0
    3.2759   -1.8228    2.1743 H   0  0  0  0  0  0  0  0  0  0  0  0
    1.1036   -0.6489    0.8034 H   0  0  0  0  0  0  0  0  0  0  0  0
    0.7176    2.1089    0.6784 H   0  0  0  0  0  0  0  0  0  0  0  0
    1.5287    2.9647   -0.4513 H   0  0  0  0  0  0  0  0  0  0  0  0
    2.7624   -3.7165    0.8250 H   0  0  0  0  0  0  0  0  0  0  0  0
    1.5576   -2.8771    0.1106 H   0  0  0  0  0  0  0  0  0  0  0  0
    3.1110   -2.4253   -0.1120 H   0  0  0  0  0  0  0  0  0  0  0  0
    1.7100   -3.3797    3.0714 H   0  0  0  0  0  0  0  0  0  0  0  0
    1.3897   -1.8692    3.6031 H   0  0  0  0  0  0  0  0  0  0  0  0
    0.4876   -2.5230    2.4091 H   0  0  0  0  0  0  0  0  0  0  0  0
    2.6500    3.0934    1.9737 H   0  0  0  0  0  0  0  0  0  0  0  0
   -0.5021    3.0830   -0.6339 H   0  0  0  0  0  0  0  0  0  0  0  0
    1.0072   -0.8844   -2.5646 H   0  0  0  0  0  0  0  0  0  0  0  0
   -3.3656    2.0639   -3.4628 H   0  0  0  0  0  0  0  0  0  0  0  0
   -2.5542    3.5386   -1.7635 H   0  0  0  0  0  0  0  0  0  0  0  0
   -3.0958    0.0837   -4.7701 H   0  0  0  0  0  0  0  0  0  0  0  0
    0.2082   -2.3631   -4.2576 H   0  0  0  0  0  0  0  0  0  0  0  0
   -1.8605   -1.8690   -5.3673 H   0  0  0  0  0  0  0  0  0  0  0  0
  1  7  1  0  0  0  0
  1 10  1  0  0  0  0
  2  4  1  0  0  0  0
  2 33  1  0  0  0  0
  3  5  1  0  0  0  0
  3  6  1  0  0  0  0
  3 24  1  0  0  0  0
  4  5  1  0  0  0  0
  4  7  1  0  0  0  0
  4 20  1  0  0  0  0
  5 21  1  0  0  0  0
  5 22  1  0  0  0  0
  6  8  1  0  0  0  0
  6  9  1  0  0  0  0
  6 23  1  0  0  0  0
  7 25  1  0  0  0  0
  7 26  1  0  0  0  0
  8 27  1  0  0  0  0
  8 28  1  0  0  0  0
  8 29  1  0  0  0  0
  9 30  1  0  0  0  0
  9 31  1  0  0  0  0
  9 32  1  0  0  0  0
 10 11  1  0  0  0  0
 10 13  2  0  0  0  0
 11 12  1  0  0  0  0
 11 14  2  0  0  0  0
 12 15  1  0  0  0  0
 12 17  2  0  0  0  0
 13 16  1  0  0  0  0
 13 34  1  0  0  0  0
 14 18  1  0  0  0  0
 14 35  1  0  0  0  0
 15 16  2  0  0  0  0
 15 36  1  0  0  0  0
 16 37  1  0  0  0  0
 17 19  1  0  0  0  0
 17 38  1  0  0  0  0
 18 19  2  0  0  0  0
 18 39  1  0  0  0  0
 19 40  1  0  0  0  0
M  END
$$$$
Propranolol
  unicon  03102511263D 1   1.00000     0.00000     0
unicon 1.5.0
 40 41  0  0  0  0            999 V2000
    0.4625    1.0389    0.1921 O   0  0  0  0  0  0  0  0  0  0  0  0
    2.7841    2.1026    1.9563 O   0  0  0  0  0  0  0  0  0  0  0  0
    1.9241   -0.5664    1.3691 N   0  0  0  0  0  0  0  0  0  0  0  0
    2.7506    1.6406    0.6030 C   0  0  1  0  0  0  0  0  0  0  0  0
    2.9583    0.1243    0.6107 C   0  0  0  0  0  0  0  0  0  0  0  0
    2.3675   -1.8969    1.7627 C   0  0  0  0  0  0  0  0  0  0  0  0
    1.4257    2.0654   -0.0264 C   0  0  0  0  0  0  0  0  0  0  0  0
    1.2733   -2.6061    2.5556 C   0  0  0  0  0  0  0  0  0  0  0  0
    3.6505   -1.7836    2.5800 C   0  0  0  0  0  0  0  0  0  0  0  0
   -0.1262    1.0016    1.4076 C   0  0  0  0  0  0  0  0  0  0  0  0
   -1.0828    0.0457    1.7411 C   0  0  0  0  0  0  0  0  0  0  0  0
   -1.6558    0.0530    3.0093 C   0  0  0  0  0  0  0  0  0  0  0  0
    0.2545    1.9599    2.3415 C   0  0  0  0  0  0  0  0  0  0  0  0
   -1.4870   -0.9289    0.8322 C   0  0  0  0  0  0  0  0  0  0  0  0
   -1.2847    1.0067    3.9512 C   0  0  0  0  0  0  0  0  0  0  0  0
   -0.3280    1.9555    3.6046 C   0  0  0  0  0  0  0  0  0  0  0  0
   -2.6119   -0.8981    3.3498 C   0  0  0  0  0  0  0  0  0  0  0  0
   -2.4417   -1.8859    1.1597 C   0  0  0  0  0  0  0  0  0  0  0  0
   -3.0054   -1.8646    2.4308 C   0  0  0  0  0  0  0  0  0  0  0  0
    3.5004    2.0671    0.0971 H   0  0  0  0  0  0  0  0  0  0  0  0
    2.9429   -0.2081   -0.3323 H   0  0  0  0  0  0  0  0  0  0  0  0
    3.8478   -0.0773    1.0207 H   0  0  0  0  0  0  0  0  0  0  0  0
    2.5597   -2.4275    0.9372 H   0  0  0  0  0  0  0  0  0  0  0  0
    1.1036   -0.6489    0.8034 H   0  0  0  0  0  0  0  0  0  0  0  0
    1.1113    2.9162    0.3947 H   0  0  0  0  0  0  0  0  0  0  0  0
    1.5501    2.2057   -1.0087 H   0  0  0  0  0  0  0  0  0  0  0  0
    1.5901   -3.5172    2.8194 H   0  0  0  0  0  0  0  0  0  0  0  0
    1.0602   -2.0766    3.3767 H   0  0  0  0  0  0  0  0  0  0  0  0
    0.4526   -2.6892    1.9903 H   0  0  0  0  0  0  0  0  0  0  0  0
    3.9552   -2.6969    2.8504 H   0  0  0  0  0  0  0  0  0  0  0  0
    4.3599   -1.3455    2.0279 H   0  0  0  0  0  0  0  0  0  0  0  0
    3.4775   -1.2343    3.3975 H   0  0  0  0  0  0  0  0  0  0  0  0
    2.6500    3.0934    1.9737 H   0  0  0  0  0  0  0  0  0  0  0  0
    0.9420    2.6470    2.1064 H   0  0  0  0  0  0  0  0  0  0  0  0
   -1.0797   -0.9410   -0.0811 H   0  0  0  0  0  0  0  0  0  0  0  0
   -1.6984    1.0103    4.8616 H   0  0  0  0  0  0  0  0  0  0  0  0
   -0.0547    2.6457    4.2747 H   0  0  0  0  0  0  0  0  0  0  0  0
   -3.0196   -0.8868    4.2628 H   0  0  0  0  0  0  0  0  0  0  0  0
   -2.7180   -2.5776    0.4925 H   0  0  0  0  0  0  0  0  0  0  0  0
   -3.6937   -2.5444    2.6839 H   0  0  0  0  0  0  0  0  0  0  0  0
  1  7  1  0  0  0  0
  1 10  1  0  0  0  0
  2  4  1  0  0  0  0
  2 33  1  0  0  0  0
  3  5  1  0  0  0  0
  3  6  1  0  0  0  0
  3 24  1  0  0  0  0
  4  5  1  0  0  0  0
  4  7  1  0  0  0  0
  4 20  1  0  0  0  0
  5 21  1  0  0  0  0
  5 22  1  0  0  0  0
  6  8  1  0  0  0  0
  6  9  1  0  0  0  0
  6 23  1  0  0  0  0
  7 25  1  0  0  0  0
  7 26  1  0  0  0  0
  8 27  1  0  0  0  0
  8 28  1  0  0  0  0
  8 29  1  0  0  0  0
  9 30  1  0  0  0  0
  9 31  1  0  0  0  0
  9 32  1  0  0  0  0
 10 11  1  0  0  0  0
 10 13  2  0  0  0  0
 11 12  1  0  0  0  0
 11 14  2  0  0  0  0
 12 15  1  0  0  0  0
 12 17  2  0  0  0  0
 13 16  1  0  0  0  0
 13 34  1  0  0  0  0
 14 18  1  0  0  0  0
 14 35  1  0  0  0  0
 15 16  2  0  0  0  0
 15 36  1  0  0  0  0
 16 37  1  0  0  0  0
 17 19  1  0  0  0  0
 17 38  1  0  0  0  0
 18 19  2  0  0  0  0
 18 39  1  0  0  0  0
 19 40  1  0  0  0  0
M  END
$$$$
Propranolol
  unicon  03102511263D 1   1.00000     0.00000     0
unicon 1.5.0
 40 41  0  0  0  0            999 V2000
    1.6223    2.2627   -1.4234 O   0  0  0  0  0  0  0  0  0  0  0  0
    2.7841    2.1026    1.9563 O   0  0  0  0  0  0  0  0  0  0  0  0
    1.9241   -0.5664    1.3691 N   0  0  0  0  0  0  0  0  0  0  0  0
    2.7506    1.6406    0.6030 C   0  0  1  0  0  0  0  0  0  0  0  0
    2.9583    0.1243    0.6107 C   0  0  0  0  0  0  0  0  0  0  0  0
    2.3675   -1.8969    1.7627 C   0  0  0  0  0  0  0  0  0  0  0  0
    1.4257    2.0654   -0.0264 C   0  0  0  0  0  0  0  0  0  0  0  0
    1.2733   -2.6061    2.5556 C   0  0  0  0  0  0  0  0  0  0  0  0
    3.6505   -1.7836    2.5800 C   0  0  0  0  0  0  0  0  0  0  0  0
    1.6379    1.1576   -2.2007 C   0  0  0  0  0  0  0  0  0  0  0  0
    1.8219    1.2215   -3.5798 C   0  0  0  0  0  0  0  0  0  0  0  0
    1.8309    0.0507   -4.3319 C   0  0  0  0  0  0  0  0  0  0  0  0
    1.4644   -0.0746   -1.5785 C   0  0  0  0  0  0  0  0  0  0  0  0
    1.9998    2.4370   -4.2358 C   0  0  0  0  0  0  0  0  0  0  0  0
    1.6570   -1.1871   -3.7219 C   0  0  0  0  0  0  0  0  0  0  0  0
    1.4743   -1.2362   -2.3435 C   0  0  0  0  0  0  0  0  0  0  0  0
    2.0139    0.1063   -5.7097 C   0  0  0  0  0  0  0  0  0  0  0  0
    2.1841    2.5069   -5.6127 C   0  0  0  0  0  0  0  0  0  0  0  0
    2.1897    1.3279   -6.3501 C   0  0  0  0  0  0  0  0  0  0  0  0
    3.5004    2.0671    0.0971 H   0  0  0  0  0  0  0  0  0  0  0  0
    2.9429   -0.2081   -0.3323 H   0  0  0  0  0  0  0  0  0  0  0  0
    3.8478   -0.0773    1.0207 H   0  0  0  0  0  0  0  0  0  0  0  0
    2.5597   -2.4275    0.9372 H   0  0  0  0  0  0  0  0  0  0  0  0
    1.1036   -0.6489    0.8034 H   0  0  0  0  0  0  0  0  0  0  0  0
    0.7406    1.3516    0.1189 H   0  0  0  0  0  0  0  0  0  0  0  0
    1.1129    2.9179    0.3925 H   0  0  0  0  0  0  0  0  0  0  0  0
    1.5901   -3.5172    2.8194 H   0  0  0  0  0  0  0  0  0  0  0  0
    1.0602   -2.0766    3.3767 H   0  0  0  0  0  0  0  0  0  0  0  0
    0.4526   -2.6892    1.9903 H   0  0  0  0  0  0  0  0  0  0  0  0
    3.9552   -2.6969    2.8504 H   0  0  0  0  0  0  0  0  0  0  0  0
    4.3599   -1.3455    2.0279 H   0  0  0  0  0  0  0  0  0  0  0  0
    3.4775   -1.2343    3.3975 H   0  0  0  0  0  0  0  0  0  0  0  0
    2.6500    3.0934    1.9737 H   0  0  0  0  0  0  0  0  0  0  0  0
    1.3335   -0.1247   -0.5884 H   0  0  0  0  0  0  0  0  0  0  0  0
    1.9949    3.2828   -3.7024 H   0  0  0  0  0  0  0  0  0  0  0  0
    1.6632   -2.0270   -4.2645 H   0  0  0  0  0  0  0  0  0  0  0  0
    1.3480   -2.1213   -1.8954 H   0  0  0  0  0  0  0  0  0  0  0  0
    2.0190   -0.7391   -6.2439 H   0  0  0  0  0  0  0  0  0  0  0  0
    2.3104    3.3899   -6.0646 H   0  0  0  0  0  0  0  0  0  0  0  0
    2.3201    1.3587   -7.3411 H   0  0  0  0  0  0  0  0  0  0  0  0
  1  7  1  0  0  0  0
  1 10  1  0  0  0  0
  2  4  1  0  0  0  0
  2 33  1  0  0  0  0
  3  5  1  0  0  0  0
  3  6  1  0  0  0  0
  3 24  1  0  0  0  0
  4  5  1  0  0  0  0
  4  7  1  0  0  0  0
  4 20  1  0  0  0  0
  5 21  1  0  0  0  0
  5 22  1  0  0  0  0
  6  8  1  0  0  0  0
  6  9  1  0  0  0  0
  6 23  1  0  0  0  0
  7 25  1  0  0  0  0
  7 26  1  0  0  0  0
  8 27  1  0  0  0  0
  8 28  1  0  0  0  0
  8 29  1  0  0  0  0
  9 30  1  0  0  0  0
  9 31  1  0  0  0  0
  9 32  1  0  0  0  0
 10 11  1  0  0  0  0
 10 13  2  0  0  0  0
 11 12  1  0  0  0  0
 11 14  2  0  0  0  0
 12 15  1  0  0  0  0
 12 17  2  0  0  0  0
 13 16  1  0  0  0  0
 13 34  1  0  0  0  0
 14 18  1  0  0  0  0
 14 35  1  0  0  0  0
 15 16  2  0  0  0  0
 15 36  1  0  0  0  0
 16 37  1  0  0  0  0
 17 19  1  0  0  0  0
 17 38  1  0  0  0  0
 18 19  2  0  0  0  0
 18 39  1  0  0  0  0
 19 40  1  0  0  0  0
M  END
$$$$
Propranolol
  unicon  03102511263D 1   1.00000     0.00000     0
unicon 1.5.0
 40 41  0  0  0  0            999 V2000
    1.5906    3.3479   -0.6241 O   0  0  0  0  0  0  0  0  0  0  0  0
    2.7841    2.1026    1.9563 O   0  0  0  0  0  0  0  0  0  0  0  0
    1.9241   -0.5664    1.3691 N   0  0  0  0  0  0  0  0  0  0  0  0
    2.7506    1.6406    0.6030 C   0  0  1  0  0  0  0  0  0  0  0  0
    2.9583    0.1243    0.6107 C   0  0  0  0  0  0  0  0  0  0  0  0
    1.8519   -1.9714    0.9917 C   0  0  0  0  0  0  0  0  0  0  0  0
    1.4257    2.0654   -0.0264 C   0  0  0  0  0  0  0  0  0  0  0  0
    1.2883   -2.1119   -0.4195 C   0  0  0  0  0  0  0  0  0  0  0  0
    0.9931   -2.7252    2.0023 C   0  0  0  0  0  0  0  0  0  0  0  0
    0.5092    3.8823   -1.2329 C   0  0  0  0  0  0  0  0  0  0  0  0
    0.5456    5.1290   -1.8526 C   0  0  0  0  0  0  0  0  0  0  0  0
   -0.5983    5.6307   -2.4663 C   0  0  0  0  0  0  0  0  0  0  0  0
   -0.6685    3.1416   -1.2290 C   0  0  0  0  0  0  0  0  0  0  0  0
    1.7070    5.8973   -1.8770 C   0  0  0  0  0  0  0  0  0  0  0  0
   -1.7820    4.9005   -2.4679 C   0  0  0  0  0  0  0  0  0  0  0  0
   -1.8042    3.6566   -1.8452 C   0  0  0  0  0  0  0  0  0  0  0  0
   -0.5699    6.8751   -3.0872 C   0  0  0  0  0  0  0  0  0  0  0  0
    1.7492    7.1428   -2.4945 C   0  0  0  0  0  0  0  0  0  0  0  0
    0.5975    7.6304   -3.1025 C   0  0  0  0  0  0  0  0  0  0  0  0
    3.5004    2.0671    0.0971 H   0  0  0  0  0  0  0  0  0  0  0  0
    2.9429   -0.2081   -0.3323 H   0  0  0  0  0  0  0  0  0  0  0  0
    3.8478   -0.0773    1.0207 H   0  0  0  0  0  0  0  0  0  0  0  0
    2.7753   -2.3549    1.0072 H   0  0  0  0  0  0  0  0  0  0  0  0
    1.0412   -0.1332    1.1880 H   0  0  0  0  0  0  0  0  0  0  0  0
    1.1572    1.4015   -0.7244 H   0  0  0  0  0  0  0  0  0  0  0  0
    0.7184    2.1120    0.6790 H   0  0  0  0  0  0  0  0  0  0  0  0
    1.2440   -3.0801   -0.6659 H   0  0  0  0  0  0  0  0  0  0  0  0
    0.3700   -1.7172   -0.4525 H   0  0  0  0  0  0  0  0  0  0  0  0
    1.8814   -1.6305   -1.0648 H   0  0  0  0  0  0  0  0  0  0  0  0
    0.9433   -3.6899    1.7435 H   0  0  0  0  0  0  0  0  0  0  0  0
    1.4007   -2.6447    2.9119 H   0  0  0  0  0  0  0  0  0  0  0  0
    0.0724   -2.3353    2.0139 H   0  0  0  0  0  0  0  0  0  0  0  0
    2.6500    3.0934    1.9737 H   0  0  0  0  0  0  0  0  0  0  0  0
   -0.6983    2.2454   -0.7863 H   0  0  0  0  0  0  0  0  0  0  0  0
    2.5332    5.5437   -1.4385 H   0  0  0  0  0  0  0  0  0  0  0  0
   -2.6029    5.2633   -2.9090 H   0  0  0  0  0  0  0  0  0  0  0  0
   -2.6505    3.1240   -1.8405 H   0  0  0  0  0  0  0  0  0  0  0  0
   -1.3957    7.2293   -3.5260 H   0  0  0  0  0  0  0  0  0  0  0  0
    2.5935    7.6787   -2.5011 H   0  0  0  0  0  0  0  0  0  0  0  0
    0.6088    8.5242   -3.5508 H   0  0  0  0  0  0  0  0  0  0  0  0
  1  7  1  0  0  0  0
  1 10  1  0  0  0  0
  2  4  1  0  0  0  0
  2 33  1  0  0  0  0
  3  5  1  0  0  0  0
  3  6  1  0  0  0  0
  3 24  1  0  0  0  0
  4  5  1  0  0  0  0
  4  7  1  0  0  0  0
  4 20  1  0  0  0  0
  5 21  1  0  0  0  0
  5 22  1  0  0  0  0
  6  8  1  0  0  0  0
  6  9  1  0  0  0  0
  6 23  1  0  0  0  0
  7 25  1  0  0  0  0
  7 26  1  0  0  0  0
  8 27  1  0  0  0  0
  8 28  1  0  0  0  0
  8 29  1  0  0  0  0
  9 30  1  0  0  0  0
  9 31  1  0  0  0  0
  9 32  1  0  0  0  0
 10 11  1  0  0  0  0
 10 13  2  0  0  0  0
 11 12  1  0  0  0  0
 11 14  2  0  0  0  0
 12 15  1  0  0  0  0
 12 17  2  0  0  0  0
 13 16  1  0  0  0  0
 13 34  1  0  0  0  0
 14 18  1  0  0  0  0
 14 35  1  0  0  0  0
 15 16  2  0  0  0  0
 15 36  1  0  0  0  0
 16 37  1  0  0  0  0
 17 19  1  0  0  0  0
 17 38  1  0  0  0  0
 18 19  2  0  0  0  0
 18 39  1  0  0  0  0
 19 40  1  0  0  0  0
M  END
$$$$
Propranolol
  unicon  03102511263D 1   1.00000     0.00000     0
unicon 1.5.0
 40 41  0  0  0  0            999 V2000
    0.9948    3.2786    0.5833 O   0  0  0  0  0  0  0  0  0  0  0  0
    2.7841    2.1026    1.9563 O   0  0  0  0  0  0  0  0  0  0  0  0
    1.9241   -0.5664    1.3691 N   0  0  0  0  0  0  0  0  0  0  0  0
    2.7506    1.6406    0.6030 C   0  0  1  0  0  0  0  0  0  0  0  0
    2.9583    0.1243    0.6107 C   0  0  0  0  0  0  0  0  0  0  0  0
    1.8519   -1.9714    0.9917 C   0  0  0  0  0  0  0  0  0  0  0  0
    1.4257    2.0654   -0.0264 C   0  0  0  0  0  0  0  0  0  0  0  0
    0.7645   -2.6797    1.7948 C   0  0  0  0  0  0  0  0  0  0  0  0
    3.2113   -2.6272    1.2128 C   0  0  0  0  0  0  0  0  0  0  0  0
   -0.1704    3.8033    0.1442 C   0  0  0  0  0  0  0  0  0  0  0  0
   -0.6954    4.9847    0.6623 C   0  0  0  0  0  0  0  0  0  0  0  0
   -1.8993    5.4809    0.1714 C   0  0  0  0  0  0  0  0  0  0  0  0
   -0.8489    3.1229   -0.8618 C   0  0  0  0  0  0  0  0  0  0  0  0
   -0.0430    5.6926    1.6686 C   0  0  0  0  0  0  0  0  0  0  0  0
   -2.5879    4.8092   -0.8331 C   0  0  0  0  0  0  0  0  0  0  0  0
   -2.0519    3.6303   -1.3415 C   0  0  0  0  0  0  0  0  0  0  0  0
   -2.4302    6.6601    0.6838 C   0  0  0  0  0  0  0  0  0  0  0  0
   -0.5626    6.8729    2.1896 C   0  0  0  0  0  0  0  0  0  0  0  0
   -1.7670    7.3552    1.6890 C   0  0  0  0  0  0  0  0  0  0  0  0
    3.5004    2.0671    0.0971 H   0  0  0  0  0  0  0  0  0  0  0  0
    2.9429   -0.2081   -0.3323 H   0  0  0  0  0  0  0  0  0  0  0  0
    3.8478   -0.0773    1.0207 H   0  0  0  0  0  0  0  0  0  0  0  0
    1.6222   -2.0305    0.0203 H   0  0  0  0  0  0  0  0  0  0  0  0
    1.0412   -0.1332    1.1880 H   0  0  0  0  0  0  0  0  0  0  0  0
    1.5509    2.2088   -1.0081 H   0  0  0  0  0  0  0  0  0  0  0  0
    0.7398    1.3529    0.1216 H   0  0  0  0  0  0  0  0  0  0  0  0
    0.7255   -3.6422    1.5265 H   0  0  0  0  0  0  0  0  0  0  0  0
    0.9743   -2.6138    2.7704 H   0  0  0  0  0  0  0  0  0  0  0  0
   -0.1187   -2.2471    1.6139 H   0  0  0  0  0  0  0  0  0  0  0  0
    3.1621   -3.5919    0.9539 H   0  0  0  0  0  0  0  0  0  0  0  0
    3.8990   -2.1662    0.6520 H   0  0  0  0  0  0  0  0  0  0  0  0
    3.4640   -2.5536    2.1776 H   0  0  0  0  0  0  0  0  0  0  0  0
    2.6500    3.0934    1.9737 H   0  0  0  0  0  0  0  0  0  0  0  0
   -0.4744    2.2751   -1.2374 H   0  0  0  0  0  0  0  0  0  0  0  0
    0.8227    5.3427    2.0265 H   0  0  0  0  0  0  0  0  0  0  0  0
   -3.4532    5.1674   -1.1839 H   0  0  0  0  0  0  0  0  0  0  0  0
   -2.5395    3.1396   -2.0637 H   0  0  0  0  0  0  0  0  0  0  0  0
   -3.2959    7.0107    0.3264 H   0  0  0  0  0  0  0  0  0  0  0  0
   -0.0782    7.3664    2.9120 H   0  0  0  0  0  0  0  0  0  0  0  0
   -2.1561    8.2019    2.0519 H   0  0  0  0  0  0  0  0  0  0  0  0
  1  7  1  0  0  0  0
  1 10  1  0  0  0  0
  2  4  1  0  0  0  0
  2 33  1  0  0  0  0
  3  5  1  0  0  0  0
  3  6  1  0  0  0  0
  3 24  1  0  0  0  0
  4  5  1  0  0  0  0
  4  7  1  0  0  0  0
  4 20  1  0  0  0  0
  5 21  1  0  0  0  0
  5 22  1  0  0  0  0
  6  8  1  0  0  0  0
  6  9  1  0  0  0  0
  6 23  1  0  0  0  0
  7 25  1  0  0  0  0
  7 26  1  0  0  0  0
  8 27  1  0  0  0  0
  8 28  1  0  0  0  0
  8 29  1  0  0  0  0
  9 30  1  0  0  0  0
  9 31  1  0  0  0  0
  9 32  1  0  0  0  0
 10 11  1  0  0  0  0
 10 13  2  0  0  0  0
 11 12  1  0  0  0  0
 11 14  2  0  0  0  0
 12 15  1  0  0  0  0
 12 17  2  0  0  0  0
 13 16  1  0  0  0  0
 13 34  1  0  0  0  0
 14 18  1  0  0  0  0
 14 35  1  0  0  0  0
 15 16  2  0  0  0  0
 15 36  1  0  0  0  0
 16 37  1  0  0  0  0
 17 19  1  0  0  0  0
 17 38  1  0  0  0  0
 18 19  2  0  0  0  0
 18 39  1  0  0  0  0
 19 40  1  0  0  0  0
M  END
$$$$
Propranolol
  unicon  03102511263D 1   1.00000     0.00000     0
unicon 1.5.0
 40 41  0  0  0  0            999 V2000
    0.4307    2.1241    0.9914 O   0  0  0  0  0  0  0  0  0  0  0  0
    2.7841    2.1026    1.9563 O   0  0  0  0  0  0  0  0  0  0  0  0
    2.9392   -0.4380   -0.7328 N   0  0  0  0  0  0  0  0  0  0  0  0
    2.7506    1.6406    0.6030 C   0  0  1  0  0  0  0  0  0  0  0  0
    2.9583    0.1243    0.6107 C   0  0  0  0  0  0  0  0  0  0  0  0
    4.2205   -0.2427   -1.3977 C   0  0  0  0  0  0  0  0  0  0  0  0
    1.4257    2.0654   -0.0264 C   0  0  0  0  0  0  0  0  0  0  0  0
    5.2896   -1.1216   -0.7545 C   0  0  0  0  0  0  0  0  0  0  0  0
    4.6087    1.2309   -1.3294 C   0  0  0  0  0  0  0  0  0  0  0  0
   -0.1248    0.9526    1.3715 C   0  0  0  0  0  0  0  0  0  0  0  0
   -1.1072    0.8808    2.3562 C   0  0  0  0  0  0  0  0  0  0  0  0
   -1.6463   -0.3531    2.7075 C   0  0  0  0  0  0  0  0  0  0  0  0
    0.3145   -0.2074    0.7415 C   0  0  0  0  0  0  0  0  0  0  0  0
   -1.5716    2.0212    3.0069 C   0  0  0  0  0  0  0  0  0  0  0  0
   -1.2145   -1.5200    2.0861 C   0  0  0  0  0  0  0  0  0  0  0  0
   -0.2326   -1.4337    1.1042 C   0  0  0  0  0  0  0  0  0  0  0  0
   -2.6276   -0.4330    3.6901 C   0  0  0  0  0  0  0  0  0  0  0  0
   -2.5525    1.9556    3.9908 C   0  0  0  0  0  0  0  0  0  0  0  0
   -3.0806    0.7149    4.3310 C   0  0  0  0  0  0  0  0  0  0  0  0
    3.5004    2.0671    0.0971 H   0  0  0  0  0  0  0  0  0  0  0  0
    3.8422   -0.0780    1.0324 H   0  0  0  0  0  0  0  0  0  0  0  0
    2.2283   -0.2985    1.1476 H   0  0  0  0  0  0  0  0  0  0  0  0
    4.1259   -0.5047   -2.3581 H   0  0  0  0  0  0  0  0  0  0  0  0
    2.2223    0.0117   -1.2656 H   0  0  0  0  0  0  0  0  0  0  0  0
    1.5279    2.9661   -0.4486 H   0  0  0  0  0  0  0  0  0  0  0  0
    1.1557    1.3998   -0.7222 H   0  0  0  0  0  0  0  0  0  0  0  0
    6.1631   -0.9781   -1.2197 H   0  0  0  0  0  0  0  0  0  0  0  0
    5.3827   -0.8802    0.2114 H   0  0  0  0  0  0  0  0  0  0  0  0
    5.0235   -2.0822   -0.8340 H   0  0  0  0  0  0  0  0  0  0  0  0
    5.4883    1.3653   -1.7858 H   0  0  0  0  0  0  0  0  0  0  0  0
    3.9092    1.7814   -1.7851 H   0  0  0  0  0  0  0  0  0  0  0  0
    4.6832    1.5120   -0.3726 H   0  0  0  0  0  0  0  0  0  0  0  0
    2.6500    3.0934    1.9737 H   0  0  0  0  0  0  0  0  0  0  0  0
    1.0186   -0.1599    0.0330 H   0  0  0  0  0  0  0  0  0  0  0  0
   -1.1894    2.9117    2.7599 H   0  0  0  0  0  0  0  0  0  0  0  0
   -1.6029   -2.4057    2.3406 H   0  0  0  0  0  0  0  0  0  0  0  0
    0.0850   -2.2670    0.6517 H   0  0  0  0  0  0  0  0  0  0  0  0
   -3.0104   -1.3230    3.9376 H   0  0  0  0  0  0  0  0  0  0  0  0
   -2.8726    2.7865    4.4459 H   0  0  0  0  0  0  0  0  0  0  0  0
   -3.7860    0.6482    5.0366 H   0  0  0  0  0  0  0  0  0  0  0  0
  1  7  1  0  0  0  0
  1 10  1  0  0  0  0
  2  4  1  0  0  0  0
  2 33  1  0  0  0  0
  3  5  1  0  0  0  0
  3  6  1  0  0  0  0
  3 24  1  0  0  0  0
  4  5  1  0  0  0  0
  4  7  1  0  0  0  0
  4 20  1  0  0  0  0
  5 21  1  0  0  0  0
  5 22  1  0  0  0  0
  6  8  1  0  0  0  0
  6  9  1  0  0  0  0
  6 23  1  0  0  0  0
  7 25  1  0  0  0  0
  7 26  1  0  0  0  0
  8 27  1  0  0  0  0
  8 28  1  0  0  0  0
  8 29  1  0  0  0  0
  9 30  1  0  0  0  0
  9 31  1  0  0  0  0
  9 32  1  0  0  0  0
 10 11  1  0  0  0  0
 10 13  2  0  0  0  0
 11 12  1  0  0  0  0
 11 14  2  0  0  0  0
 12 15  1  0  0  0  0
 12 17  2  0  0  0  0
 13 16  1  0  0  0  0
 13 34  1  0  0  0  0
 14 18  1  0  0  0  0
 14 35  1  0  0  0  0
 15 16  2  0  0  0  0
 15 36  1  0  0  0  0
 16 37  1  0  0  0  0
 17 19  1  0  0  0  0
 17 38  1  0  0  0  0
 18 19  2  0  0  0  0
 18 39  1  0  0  0  0
 19 40  1  0  0  0  0
M  END
$$$$
Propranolol
  unicon  03102511263D 1   1.00000     0.00000     0
unicon 1.5.0
 40 41  0  0  0  0            999 V2000
    1.0583    1.1081   -1.0153 O   0  0  0  0  0  0  0  0  0  0  0  0
    2.7841    2.1026    1.9563 O   0  0  0  0  0  0  0  0  0  0  0  0
    2.9392   -0.4380   -0.7328 N   0  0  0  0  0  0  0  0  0  0  0  0
    2.7506    1.6406    0.6030 C   0  0  1  0  0  0  0  0  0  0  0  0
    2.9583    0.1243    0.6107 C   0  0  0  0  0  0  0  0  0  0  0  0
    4.2205   -0.2427   -1.3977 C   0  0  0  0  0  0  0  0  0  0  0  0
    1.4257    2.0654   -0.0264 C   0  0  0  0  0  0  0  0  0  0  0  0
    5.2896   -1.1216   -0.7545 C   0  0  0  0  0  0  0  0  0  0  0  0
    4.6087    1.2309   -1.3294 C   0  0  0  0  0  0  0  0  0  0  0  0
    1.6634    1.2098   -2.2191 C   0  0  0  0  0  0  0  0  0  0  0  0
    1.3879    0.3331   -3.2657 C   0  0  0  0  0  0  0  0  0  0  0  0
    2.0397    0.4852   -4.4858 C   0  0  0  0  0  0  0  0  0  0  0  0
    2.5876    2.2346   -2.3952 C   0  0  0  0  0  0  0  0  0  0  0  0
    0.4681   -0.7032   -3.1256 C   0  0  0  0  0  0  0  0  0  0  0  0
    2.9667    1.5048   -4.6739 C   0  0  0  0  0  0  0  0  0  0  0  0
    3.2322    2.3733   -3.6200 C   0  0  0  0  0  0  0  0  0  0  0  0
    1.7701   -0.3864   -5.5358 C   0  0  0  0  0  0  0  0  0  0  0  0
    0.1889   -1.5815   -4.1673 C   0  0  0  0  0  0  0  0  0  0  0  0
    0.8493   -1.4166   -5.3799 C   0  0  0  0  0  0  0  0  0  0  0  0
    3.5004    2.0671    0.0971 H   0  0  0  0  0  0  0  0  0  0  0  0
    3.8422   -0.0780    1.0324 H   0  0  0  0  0  0  0  0  0  0  0  0
    2.2283   -0.2985    1.1476 H   0  0  0  0  0  0  0  0  0  0  0  0
    4.1259   -0.5047   -2.3581 H   0  0  0  0  0  0  0  0  0  0  0  0
    2.2223    0.0117   -1.2656 H   0  0  0  0  0  0  0  0  0  0  0  0
    0.7176    2.1089    0.6784 H   0  0  0  0  0  0  0  0  0  0  0  0
    1.5287    2.9647   -0.4513 H   0  0  0  0  0  0  0  0  0  0  0  0
    6.1631   -0.9781   -1.2197 H   0  0  0  0  0  0  0  0  0  0  0  0
    5.3827   -0.8802    0.2114 H   0  0  0  0  0  0  0  0  0  0  0  0
    5.0235   -2.0822   -0.8340 H   0  0  0  0  0  0  0  0  0  0  0  0
    5.4883    1.3653   -1.7858 H   0  0  0  0  0  0  0  0  0  0  0  0
    3.9092    1.7814   -1.7851 H   0  0  0  0  0  0  0  0  0  0  0  0
    4.6832    1.5120   -0.3726 H   0  0  0  0  0  0  0  0  0  0  0  0
    2.6500    3.0934    1.9737 H   0  0  0  0  0  0  0  0  0  0  0  0
    2.7870    2.8670   -1.6467 H   0  0  0  0  0  0  0  0  0  0  0  0
   -0.0046   -0.8190   -2.2520 H   0  0  0  0  0  0  0  0  0  0  0  0
    3.4343    1.6117   -5.5514 H   0  0  0  0  0  0  0  0  0  0  0  0
    3.8975    3.1094   -3.7450 H   0  0  0  0  0  0  0  0  0  0  0  0
    2.2423   -0.2713   -6.4097 H   0  0  0  0  0  0  0  0  0  0  0  0
   -0.4754   -2.3191   -4.0462 H   0  0  0  0  0  0  0  0  0  0  0  0
    0.6619   -2.0389   -6.1399 H   0  0  0  0  0  0  0  0  0  0  0  0
  1  7  1  0  0  0  0
  1 10  1  0  0  0  0
  2  4  1  0  0  0  0
  2 33  1  0  0  0  0
  3  5  1  0  0  0  0
  3  6  1  0  0  0  0
  3 24  1  0  0  0  0
  4  5  1  0  0  0  0
  4  7  1  0  0  0  0
  4 20  1  0  0  0  0
  5 21  1  0  0  0  0
  5 22  1  0  0  0  0
  6  8  1  0  0  0  0
  6  9  1  0  0  0  0
  6 23  1  0  0  0  0
  7 25  1  0  0  0  0
  7 26  1  0  0  0  0
  8 27  1  0  0  0  0
  8 28  1  0  0  0  0
  8 29  1  0  0  0  0
  9 30  1  0  0  0  0
  9 31  1  0  0  0  0
  9 32  1  0  0  0  0
 10 11  1  0  0  0  0
 10 13  2  0  0  0  0
 11 12  1  0  0  0  0
 11 14  2  0  0  0  0
 12 15  1  0  0  0  0
 12 17  2  0  0  0  0
 13 16  1  0  0  0  0
 13 34  1  0  0  0  0
 14 18  1  0  0  0  0
 14 35  1  0  0  0  0
 15 16  2  0  0  0  0
 15 36  1  0  0  0  0
 16 37  1  0  0  0  0
 17 19  1  0  0  0  0
 17 38  1  0  0  0  0
 18 19  2  0  0  0  0
 18 39  1  0  0  0  0
 19 40  1  0  0  0  0
M  END
$$$$
Propranolol
  unicon  03102511263D 1   1.00000     0.00000     0
unicon 1.5.0
 40 41  0  0  0  0            999 V2000
    1.0583    1.1081   -1.0153 O   0  0  0  0  0  0  0  0  0  0  0  0
    2.7841    2.1026    1.9563 O   0  0  0  0  0  0  0  0  0  0  0  0
    2.9392   -0.4380   -0.7328 N   0  0  0  0  0  0  0  0  0  0  0  0
    2.7506    1.6406    0.6030 C   0  0  1  0  0  0  0  0  0  0  0  0
    2.9583    0.1243    0.6107 C   0  0  0  0  0  0  0  0  0  0  0  0
    2.6666   -1.8684   -0.6952 C   0  0  0  0  0  0  0  0  0  0  0  0
    1.4257    2.0654   -0.0264 C   0  0  0  0  0  0  0  0  0  0  0  0
    3.8584   -2.6188   -0.1076 C   0  0  0  0  0  0  0  0  0  0  0  0
    2.3483   -2.3620   -2.1030 C   0  0  0  0  0  0  0  0  0  0  0  0
    0.4846   -0.0340   -0.5772 C   0  0  0  0  0  0  0  0  0  0  0  0
    0.0822   -1.0446   -1.4471 C   0  0  0  0  0  0  0  0  0  0  0  0
   -0.5023   -2.2016   -0.9407 C   0  0  0  0  0  0  0  0  0  0  0  0
    0.3026   -0.1831    0.7939 C   0  0  0  0  0  0  0  0  0  0  0  0
    0.2499   -0.9301   -2.8249 C   0  0  0  0  0  0  0  0  0  0  0  0
   -0.6911   -2.3620    0.4279 C   0  0  0  0  0  0  0  0  0  0  0  0
   -0.2843   -1.3445    1.2852 C   0  0  0  0  0  0  0  0  0  0  0  0
   -0.9070   -3.2153   -1.8030 C   0  0  0  0  0  0  0  0  0  0  0  0
   -0.1500   -1.9361   -3.6981 C   0  0  0  0  0  0  0  0  0  0  0  0
   -0.7331   -3.0857   -3.1765 C   0  0  0  0  0  0  0  0  0  0  0  0
    3.5004    2.0671    0.0971 H   0  0  0  0  0  0  0  0  0  0  0  0
    3.8422   -0.0780    1.0324 H   0  0  0  0  0  0  0  0  0  0  0  0
    2.2283   -0.2985    1.1476 H   0  0  0  0  0  0  0  0  0  0  0  0
    1.8695   -2.0271   -0.1125 H   0  0  0  0  0  0  0  0  0  0  0  0
    3.8285   -0.2857   -1.1639 H   0  0  0  0  0  0  0  0  0  0  0  0
    0.7176    2.1089    0.6784 H   0  0  0  0  0  0  0  0  0  0  0  0
    1.5287    2.9647   -0.4513 H   0  0  0  0  0  0  0  0  0  0  0  0
    3.6585   -3.5984   -0.0874 H   0  0  0  0  0  0  0  0  0  0  0  0
    4.6669   -2.4552   -0.6728 H   0  0  0  0  0  0  0  0  0  0  0  0
    4.0308   -2.2946    0.8226 H   0  0  0  0  0  0  0  0  0  0  0  0
    2.1611   -3.3440   -2.0775 H   0  0  0  0  0  0  0  0  0  0  0  0
    1.5456   -1.8786   -2.4523 H   0  0  0  0  0  0  0  0  0  0  0  0
    3.1296   -2.1871   -2.7021 H   0  0  0  0  0  0  0  0  0  0  0  0
    2.6500    3.0934    1.9737 H   0  0  0  0  0  0  0  0  0  0  0  0
    0.5916    0.5396    1.4218 H   0  0  0  0  0  0  0  0  0  0  0  0
    0.6693   -0.1019   -3.1965 H   0  0  0  0  0  0  0  0  0  0  0  0
   -1.1118   -3.1940    0.7893 H   0  0  0  0  0  0  0  0  0  0  0  0
   -0.4160   -1.4500    2.2709 H   0  0  0  0  0  0  0  0  0  0  0  0
   -1.3264   -4.0439   -1.4321 H   0  0  0  0  0  0  0  0  0  0  0  0
   -0.0203   -1.8344   -4.6845 H   0  0  0  0  0  0  0  0  0  0  0  0
   -1.0274   -3.8192   -3.7891 H   0  0  0  0  0  0  0  0  0  0  0  0
  1  7  1  0  0  0  0
  1 10  1  0  0  0  0
  2  4  1  0  0  0  0
  2 33  1  0  0  0  0
  3  5  1  0  0  0  0
  3  6  1  0  0  0  0
  3 24  1  0  0  0  0
  4  5  1  0  0  0  0
  4  7  1  0  0  0  0
  4 20  1  0  0  0  0
  5 21  1  0  0  0  0
  5 22  1  0  0  0  0
  6  8  1  0  0  0  0
  6  9  1  0  0  0  0
  6 23  1  0  0  0  0
  7 25  1  0  0  0  0
  7 26  1  0  0  0  0
  8 27  1  0  0  0  0
  8 28  1  0  0  0  0
  8 29  1  0  0  0  0
  9 30  1  0  0  0  0
  9 31  1  0  0  0  0
  9 32  1  0  0  0  0
 10 11  1  0  0  0  0
 10 13  2  0  0  0  0
 11 12  1  0  0  0  0
 11 14  2  0  0  0  0
 12 15  1  0  0  0  0
 12 17  2  0  0  0  0
 13 16  1  0  0  0  0
 13 34  1  0  0  0  0
 14 18  1  0  0  0  0
 14 35  1  0  0  0  0
 15 16  2  0  0  0  0
 15 36  1  0  0  0  0
 16 37  1  0  0  0  0
 17 19  1  0  0  0  0
 17 38  1  0  0  0  0
 18 19  2  0  0  0  0
 18 39  1  0  0  0  0
 19 40  1  0  0  0  0
M  END
$$$$
Propranolol
  unicon  03102511263D 1   1.00000     0.00000     0
unicon 1.5.0
 40 41  0  0  0  0            999 V2000
    0.9948    3.2786    0.5833 O   0  0  0  0  0  0  0  0  0  0  0  0
    2.7841    2.1026    1.9563 O   0  0  0  0  0  0  0  0  0  0  0  0
    2.9392   -0.4380   -0.7328 N   0  0  0  0  0  0  0  0  0  0  0  0
    2.7506    1.6406    0.6030 C   0  0  1  0  0  0  0  0  0  0  0  0
    2.9583    0.1243    0.6107 C   0  0  0  0  0  0  0  0  0  0  0  0
    2.6666   -1.8684   -0.6952 C   0  0  0  0  0  0  0  0  0  0  0  0
    1.4257    2.0654   -0.0264 C   0  0  0  0  0  0  0  0  0  0  0  0
    3.8584   -2.6188   -0.1076 C   0  0  0  0  0  0  0  0  0  0  0  0
    2.3483   -2.3620   -2.1030 C   0  0  0  0  0  0  0  0  0  0  0  0
    1.5694    4.4205    0.1457 C   0  0  0  0  0  0  0  0  0  0  0  0
    1.2317    5.6684    0.6639 C   0  0  0  0  0  0  0  0  0  0  0  0
    1.8569    6.8123    0.1769 C   0  0  0  0  0  0  0  0  0  0  0  0
    2.5300    4.3199   -0.8556 C   0  0  0  0  0  0  0  0  0  0  0  0
    0.2759    5.8066    1.6672 C   0  0  0  0  0  0  0  0  0  0  0  0
    2.8177    6.7251   -0.8250 C   0  0  0  0  0  0  0  0  0  0  0  0
    3.1454    5.4722   -1.3334 C   0  0  0  0  0  0  0  0  0  0  0  0
    1.5250    8.0622    0.6891 C   0  0  0  0  0  0  0  0  0  0  0  0
   -0.0652    7.0501    2.1885 C   0  0  0  0  0  0  0  0  0  0  0  0
    0.5680    8.1837    1.6906 C   0  0  0  0  0  0  0  0  0  0  0  0
    3.5004    2.0671    0.0971 H   0  0  0  0  0  0  0  0  0  0  0  0
    3.8422   -0.0780    1.0324 H   0  0  0  0  0  0  0  0  0  0  0  0
    2.2283   -0.2985    1.1476 H   0  0  0  0  0  0  0  0  0  0  0  0
    1.8695   -2.0271   -0.1125 H   0  0  0  0  0  0  0  0  0  0  0  0
    3.8285   -0.2857   -1.1639 H   0  0  0  0  0  0  0  0  0  0  0  0
    1.5509    2.2088   -1.0081 H   0  0  0  0  0  0  0  0  0  0  0  0
    0.7398    1.3529    0.1216 H   0  0  0  0  0  0  0  0  0  0  0  0
    3.6585   -3.5984   -0.0874 H   0  0  0  0  0  0  0  0  0  0  0  0
    4.6669   -2.4552   -0.6728 H   0  0  0  0  0  0  0  0  0  0  0  0
    4.0308   -2.2946    0.8226 H   0  0  0  0  0  0  0  0  0  0  0  0
    2.1611   -3.3440   -2.0775 H   0  0  0  0  0  0  0  0  0  0  0  0
    1.5456   -1.8786   -2.4523 H   0  0  0  0  0  0  0  0  0  0  0  0
    3.1296   -2.1871   -2.7021 H   0  0  0  0  0  0  0  0  0  0  0  0
    2.6500    3.0934    1.9737 H   0  0  0  0  0  0  0  0  0  0  0  0
    2.7763    3.4256   -1.2292 H   0  0  0  0  0  0  0  0  0  0  0  0
   -0.1777    4.9893    2.0227 H   0  0  0  0  0  0  0  0  0  0  0  0
    3.2652    7.5486   -1.1738 H   0  0  0  0  0  0  0  0  0  0  0  0
    3.8346    5.3989   -2.0542 H   0  0  0  0  0  0  0  0  0  0  0  0
    1.9781    8.8800    0.3343 H   0  0  0  0  0  0  0  0  0  0  0  0
   -0.7542    7.1278    2.9092 H   0  0  0  0  0  0  0  0  0  0  0  0
    0.3351    9.0862    2.0529 H   0  0  0  0  0  0  0  0  0  0  0  0
  1  7  1  0  0  0  0
  1 10  1  0  0  0  0
  2  4  1  0  0  0  0
  2 33  1  0  0  0  0
  3  5  1  0  0  0  0
  3  6  1  0  0  0  0
  3 24  1  0  0  0  0
  4  5  1  0  0  0  0
  4  7  1  0  0  0  0
  4 20  1  0  0  0  0
  5 21  1  0  0  0  0
  5 22  1  0  0  0  0
  6  8  1  0  0  0  0
  6  9  1  0  0  0  0
  6 23  1  0  0  0  0
  7 25  1  0  0  0  0
  7 26  1  0  0  0  0
  8 27  1  0  0  0  0
  8 28  1  0  0  0  0
  8 29  1  0  0  0  0
  9 30  1  0  0  0  0
  9 31  1  0  0  0  0
  9 32  1  0  0  0  0
 10 11  1  0  0  0  0
 10 13  2  0  0  0  0
 11 12  1  0  0  0  0
 11 14  2  0  0  0  0
 12 15  1  0  0  0  0
 12 17  2  0  0  0  0
 13 16  1  0  0  0  0
 13 34  1  0  0  0  0
 14 18  1  0  0  0  0
 14 35  1  0  0  0  0
 15 16  2  0  0  0  0
 15 36  1  0  0  0  0
 16 37  1  0  0  0  0
 17 19  1  0  0  0  0
 17 38  1  0  0  0  0
 18 19  2  0  0  0  0
 18 39  1  0  0  0  0
 19 40  1  0  0  0  0
M  END
$$$$
Propranolol
  unicon  03102511263D 1   1.00000     0.00000     0
unicon 1.5.0
 40 41  0  0  0  0            999 V2000
    0.4625    1.0389    0.1921 O   0  0  0  0  0  0  0  0  0  0  0  0
    2.7841    2.1026    1.9563 O   0  0  0  0  0  0  0  0  0  0  0  0
    2.9392   -0.4380   -0.7328 N   0  0  0  0  0  0  0  0  0  0  0  0
    2.7506    1.6406    0.6030 C   0  0  1  0  0  0  0  0  0  0  0  0
    2.9583    0.1243    0.6107 C   0  0  0  0  0  0  0  0  0  0  0  0
    2.6666   -1.8684   -0.6952 C   0  0  0  0  0  0  0  0  0  0  0  0
    1.4257    2.0654   -0.0264 C   0  0  0  0  0  0  0  0  0  0  0  0
    2.6501   -2.4412   -2.1096 C   0  0  0  0  0  0  0  0  0  0  0  0
    1.3368   -2.1136    0.0108 C   0  0  0  0  0  0  0  0  0  0  0  0
   -0.1262    1.0016    1.4076 C   0  0  0  0  0  0  0  0  0  0  0  0
   -1.0828    0.0457    1.7411 C   0  0  0  0  0  0  0  0  0  0  0  0
   -1.6558    0.0530    3.0093 C   0  0  0  0  0  0  0  0  0  0  0  0
    0.2545    1.9599    2.3415 C   0  0  0  0  0  0  0  0  0  0  0  0
   -1.4870   -0.9289    0.8322 C   0  0  0  0  0  0  0  0  0  0  0  0
   -1.2847    1.0067    3.9512 C   0  0  0  0  0  0  0  0  0  0  0  0
   -0.3280    1.9555    3.6046 C   0  0  0  0  0  0  0  0  0  0  0  0
   -2.6119   -0.8981    3.3498 C   0  0  0  0  0  0  0  0  0  0  0  0
   -2.4417   -1.8859    1.1597 C   0  0  0  0  0  0  0  0  0  0  0  0
   -3.0054   -1.8646    2.4308 C   0  0  0  0  0  0  0  0  0  0  0  0
    3.5004    2.0671    0.0971 H   0  0  0  0  0  0  0  0  0  0  0  0
    3.8422   -0.0780    1.0324 H   0  0  0  0  0  0  0  0  0  0  0  0
    2.2283   -0.2985    1.1476 H   0  0  0  0  0  0  0  0  0  0  0  0
    3.3926   -2.3191   -0.1758 H   0  0  0  0  0  0  0  0  0  0  0  0
    3.8285   -0.2857   -1.1639 H   0  0  0  0  0  0  0  0  0  0  0  0
    1.1113    2.9162    0.3947 H   0  0  0  0  0  0  0  0  0  0  0  0
    1.5501    2.2057   -1.0087 H   0  0  0  0  0  0  0  0  0  0  0  0
    2.4621   -3.4226   -2.0696 H   0  0  0  0  0  0  0  0  0  0  0  0
    1.9380   -1.9870   -2.6449 H   0  0  0  0  0  0  0  0  0  0  0  0
    3.5393   -2.2894   -2.5411 H   0  0  0  0  0  0  0  0  0  0  0  0
    1.1493   -3.0955    0.0368 H   0  0  0  0  0  0  0  0  0  0  0  0
    1.3845   -1.7585    0.9444 H   0  0  0  0  0  0  0  0  0  0  0  0
    0.6047   -1.6475   -0.4861 H   0  0  0  0  0  0  0  0  0  0  0  0
    2.6500    3.0934    1.9737 H   0  0  0  0  0  0  0  0  0  0  0  0
    0.9420    2.6470    2.1064 H   0  0  0  0  0  0  0  0  0  0  0  0
   -1.0797   -0.9410   -0.0811 H   0  0  0  0  0  0  0  0  0  0  0  0
   -1.6984    1.0103    4.8616 H   0  0  0  0  0  0  0  0  0  0  0  0
   -0.0547    2.6457    4.2747 H   0  0  0  0  0  0  0  0  0  0  0  0
   -3.0196   -0.8868    4.2628 H   0  0  0  0  0  0  0  0  0  0  0  0
   -2.7180   -2.5776    0.4925 H   0  0  0  0  0  0  0  0  0  0  0  0
   -3.6937   -2.5444    2.6839 H   0  0  0  0  0  0  0  0  0  0  0  0
  1  7  1  0  0  0  0
  1 10  1  0  0  0  0
  2  4  1  0  0  0  0
  2 33  1  0  0  0  0
  3  5  1  0  0  0  0
  3  6  1  0  0  0  0
  3 24  1  0  0  0  0
  4  5  1  0  0  0  0
  4  7  1  0  0  0  0
  4 20  1  0  0  0  0
  5 21  1  0  0  0  0
  5 22  1  0  0  0  0
  6  8  1  0  0  0  0
  6  9  1  0  0  0  0
  6 23  1  0  0  0  0
  7 25  1  0  0  0  0
  7 26  1  0  0  0  0
  8 27  1  0  0  0  0
  8 28  1  0  0  0  0
  8 29  1  0  0  0  0
  9 30  1  0  0  0  0
  9 31  1  0  0  0  0
  9 32  1  0  0  0  0
 10 11  1  0  0  0  0
 10 13  2  0  0  0  0
 11 12  1  0  0  0  0
 11 14  2  0  0  0  0
 12 15  1  0  0  0  0
 12 17  2  0  0  0  0
 13 16  1  0  0  0  0
 13 34  1  0  0  0  0
 14 18  1  0  0  0  0
 14 35  1  0  0  0  0
 15 16  2  0  0  0  0
 15 36  1  0  0  0  0
 16 37  1  0  0  0  0
 17 19  1  0  0  0  0
 17 38  1  0  0  0  0
 18 19  2  0  0  0  0
 18 39  1  0  0  0  0
 19 40  1  0  0  0  0
M  END
$$$$
Propranolol
  unicon  03102511263D 1   1.00000     0.00000     0
unicon 1.5.0
 40 41  0  0  0  0            999 V2000
    1.6223    2.2627   -1.4234 O   0  0  0  0  0  0  0  0  0  0  0  0
    2.7841    2.1026    1.9563 O   0  0  0  0  0  0  0  0  0  0  0  0
    2.9392   -0.4380   -0.7328 N   0  0  0  0  0  0  0  0  0  0  0  0
    2.7506    1.6406    0.6030 C   0  0  1  0  0  0  0  0  0  0  0  0
    2.9583    0.1243    0.6107 C   0  0  0  0  0  0  0  0  0  0  0  0
    2.6666   -1.8684   -0.6952 C   0  0  0  0  0  0  0  0  0  0  0  0
    1.4257    2.0654   -0.0264 C   0  0  0  0  0  0  0  0  0  0  0  0
    2.6501   -2.4412   -2.1096 C   0  0  0  0  0  0  0  0  0  0  0  0
    1.3368   -2.1136    0.0108 C   0  0  0  0  0  0  0  0  0  0  0  0
    2.1789    3.4339   -1.8031 C   0  0  0  0  0  0  0  0  0  0  0  0
    2.4211    3.7429   -3.1394 C   0  0  0  0  0  0  0  0  0  0  0  0
    2.9955    4.9655   -3.4739 C   0  0  0  0  0  0  0  0  0  0  0  0
    2.5103    4.3467   -0.8069 C   0  0  0  0  0  0  0  0  0  0  0  0
    2.1013    2.8540   -4.1627 C   0  0  0  0  0  0  0  0  0  0  0  0
    3.3327    5.8859   -2.4872 C   0  0  0  0  0  0  0  0  0  0  0  0
    3.0850    5.5642   -1.1565 C   0  0  0  0  0  0  0  0  0  0  0  0
    3.2408    5.2814   -4.8062 C   0  0  0  0  0  0  0  0  0  0  0  0
    2.3409    3.1573   -5.4987 C   0  0  0  0  0  0  0  0  0  0  0  0
    2.9161    4.3829   -5.8165 C   0  0  0  0  0  0  0  0  0  0  0  0
    3.5004    2.0671    0.0971 H   0  0  0  0  0  0  0  0  0  0  0  0
    3.8422   -0.0780    1.0324 H   0  0  0  0  0  0  0  0  0  0  0  0
    2.2283   -0.2985    1.1476 H   0  0  0  0  0  0  0  0  0  0  0  0
    3.3926   -2.3191   -0.1758 H   0  0  0  0  0  0  0  0  0  0  0  0
    3.8285   -0.2857   -1.1639 H   0  0  0  0  0  0  0  0  0  0  0  0
    0.7406    1.3516    0.1189 H   0  0  0  0  0  0  0  0  0  0  0  0
    1.1129    2.9179    0.3925 H   0  0  0  0  0  0  0  0  0  0  0  0
    2.4621   -3.4226   -2.0696 H   0  0  0  0  0  0  0  0  0  0  0  0
    1.9380   -1.9870   -2.6449 H   0  0  0  0  0  0  0  0  0  0  0  0
    3.5393   -2.2894   -2.5411 H   0  0  0  0  0  0  0  0  0  0  0  0
    1.1493   -3.0955    0.0368 H   0  0  0  0  0  0  0  0  0  0  0  0
    1.3845   -1.7585    0.9444 H   0  0  0  0  0  0  0  0  0  0  0  0
    0.6047   -1.6475   -0.4861 H   0  0  0  0  0  0  0  0  0  0  0  0
    2.6500    3.0934    1.9737 H   0  0  0  0  0  0  0  0  0  0  0  0
    2.3365    4.1291    0.1535 H   0  0  0  0  0  0  0  0  0  0  0  0
    1.6881    1.9735   -3.9304 H   0  0  0  0  0  0  0  0  0  0  0  0
    3.7458    6.7636   -2.7300 H   0  0  0  0  0  0  0  0  0  0  0  0
    3.3242    6.2190   -0.4395 H   0  0  0  0  0  0  0  0  0  0  0  0
    3.6539    6.1618   -5.0393 H   0  0  0  0  0  0  0  0  0  0  0  0
    2.1035    2.5052   -6.2187 H   0  0  0  0  0  0  0  0  0  0  0  0
    3.0963    4.6180   -6.7716 H   0  0  0  0  0  0  0  0  0  0  0  0
  1  7  1  0  0  0  0
  1 10  1  0  0  0  0
  2  4  1  0  0  0  0
  2 33  1  0  0  0  0
  3  5  1  0  0  0  0
  3  6  1  0  0  0  0
  3 24  1  0  0  0  0
  4  5  1  0  0  0  0
  4  7  1  0  0  0  0
  4 20  1  0  0  0  0
  5 21  1  0  0  0  0
  5 22  1  0  0  0  0
  6  8  1  0  0  0  0
  6  9  1  0  0  0  0
  6 23  1  0  0  0  0
  7 25  1  0  0  0  0
  7 26  1  0  0  0  0
  8 27  1  0  0  0  0
  8 28  1  0  0  0  0
  8 29  1  0  0  0  0
  9 30  1  0  0  0  0
  9 31  1  0  0  0  0
  9 32  1  0  0  0  0
 10 11  1  0  0  0  0
 10 13  2  0  0  0  0
 11 12  1  0  0  0  0
 11 14  2  0  0  0  0
 12 15  1  0  0  0  0
 12 17  2  0  0  0  0
 13 16  1  0  0  0  0
 13 34  1  0  0  0  0
 14 18  1  0  0  0  0
 14 35  1  0  0  0  0
 15 16  2  0  0  0  0
 15 36  1  0  0  0  0
 16 37  1  0  0  0  0
 17 19  1  0  0  0  0
 17 38  1  0  0  0  0
 18 19  2  0  0  0  0
 18 39  1  0  0  0  0
 19 40  1  0  0  0  0
M  END
$$$$
Propranolol
  unicon  03102511263D 1   1.00000     0.00000     0
unicon 1.5.0
 40 41  0  0  0  0            999 V2000
    1.3339    3.4865    0.0098 O   0  0  0  0  0  0  0  0  0  0  0  0
    2.7841    2.1026    1.9563 O   0  0  0  0  0  0  0  0  0  0  0  0
    2.9392   -0.4380   -0.7328 N   0  0  0  0  0  0  0  0  0  0  0  0
    2.7506    1.6406    0.6030 C   0  0  1  0  0  0  0  0  0  0  0  0
    2.9583    0.1243    0.6107 C   0  0  0  0  0  0  0  0  0  0  0  0
    2.6666   -1.8684   -0.6952 C   0  0  0  0  0  0  0  0  0  0  0  0
    1.4257    2.0654   -0.0264 C   0  0  0  0  0  0  0  0  0  0  0  0
    2.6501   -2.4412   -2.1096 C   0  0  0  0  0  0  0  0  0  0  0  0
    1.3368   -2.1136    0.0108 C   0  0  0  0  0  0  0  0  0  0  0  0
    0.9572    4.0451    1.1810 C   0  0  0  0  0  0  0  0  0  0  0  0
    0.8315    5.4230    1.3407 C   0  0  0  0  0  0  0  0  0  0  0  0
    0.4383    5.9443    2.5697 C   0  0  0  0  0  0  0  0  0  0  0  0
    0.6893    3.1939    2.2483 C   0  0  0  0  0  0  0  0  0  0  0  0
    1.0904    6.3047    0.2943 C   0  0  0  0  0  0  0  0  0  0  0  0
    0.1690    5.1039    3.6446 C   0  0  0  0  0  0  0  0  0  0  0  0
    0.2985    3.7296    3.4710 C   0  0  0  0  0  0  0  0  0  0  0  0
    0.3107    7.3193    2.7371 C   0  0  0  0  0  0  0  0  0  0  0  0
    0.9664    7.6815    0.4480 C   0  0  0  0  0  0  0  0  0  0  0  0
    0.5733    8.1867    1.6825 C   0  0  0  0  0  0  0  0  0  0  0  0
    3.5004    2.0671    0.0971 H   0  0  0  0  0  0  0  0  0  0  0  0
    3.8422   -0.0780    1.0324 H   0  0  0  0  0  0  0  0  0  0  0  0
    2.2283   -0.2985    1.1476 H   0  0  0  0  0  0  0  0  0  0  0  0
    3.3926   -2.3191   -0.1758 H   0  0  0  0  0  0  0  0  0  0  0  0
    3.8285   -0.2857   -1.1639 H   0  0  0  0  0  0  0  0  0  0  0  0
    1.3881    1.7504   -0.9748 H   0  0  0  0  0  0  0  0  0  0  0  0
    0.6664    1.6665    0.4877 H   0  0  0  0  0  0  0  0  0  0  0  0
    2.4621   -3.4226   -2.0696 H   0  0  0  0  0  0  0  0  0  0  0  0
    1.9380   -1.9870   -2.6449 H   0  0  0  0  0  0  0  0  0  0  0  0
    3.5393   -2.2894   -2.5411 H   0  0  0  0  0  0  0  0  0  0  0  0
    1.1493   -3.0955    0.0368 H   0  0  0  0  0  0  0  0  0  0  0  0
    1.3845   -1.7585    0.9444 H   0  0  0  0  0  0  0  0  0  0  0  0
    0.6047   -1.6475   -0.4861 H   0  0  0  0  0  0  0  0  0  0  0  0
    2.6500    3.0934    1.9737 H   0  0  0  0  0  0  0  0  0  0  0  0
    0.7769    2.2040    2.1372 H   0  0  0  0  0  0  0  0  0  0  0  0
    1.3732    5.9379   -0.5920 H   0  0  0  0  0  0  0  0  0  0  0  0
   -0.1129    5.4809    4.5269 H   0  0  0  0  0  0  0  0  0  0  0  0
    0.1075    3.1169    4.2379 H   0  0  0  0  0  0  0  0  0  0  0  0
    0.0278    7.6869    3.6230 H   0  0  0  0  0  0  0  0  0  0  0  0
    1.1567    8.2976   -0.3163 H   0  0  0  0  0  0  0  0  0  0  0  0
    0.4794    9.1738    1.8118 H   0  0  0  0  0  0  0  0  0  0  0  0
  1  7  1  0  0  0  0
  1 10  1  0  0  0  0
  2  4  1  0  0  0  0
  2 33  1  0  0  0  0
  3  5  1  0  0  0  0
  3  6  1  0  0  0  0
  3 24  1  0  0  0  0
  4  5  1  0  0  0  0
  4  7  1  0  0  0  0
  4 20  1  0  0  0  0
  5 21  1  0  0  0  0
  5 22  1  0  0  0  0
  6  8  1  0  0  0  0
  6  9  1  0  0  0  0
  6 23  1  0  0  0  0
  7 25  1  0  0  0  0
  7 26  1  0  0  0  0
  8 27  1  0  0  0  0
  8 28  1  0  0  0  0
  8 29  1  0  0  0  0
  9 30  1  0  0  0  0
  9 31  1  0  0  0  0
  9 32  1  0  0  0  0
 10 11  1  0  0  0  0
 10 13  2  0  0  0  0
 11 12  1  0  0  0  0
 11 14  2  0  0  0  0
 12 15  1  0  0  0  0
 12 17  2  0  0  0  0
 13 16  1  0  0  0  0
 13 34  1  0  0  0  0
 14 18  1  0  0  0  0
 14 35  1  0  0  0  0
 15 16  2  0  0  0  0
 15 36  1  0  0  0  0
 16 37  1  0  0  0  0
 17 19  1  0  0  0  0
 17 38  1  0  0  0  0
 18 19  2  0  0  0  0
 18 39  1  0  0  0  0
 19 40  1  0  0  0  0
M  END
$$$$
Propranolol
  unicon  03102511263D 1   1.00000     0.00000     0
unicon 1.5.0
 40 41  0  0  0  0            999 V2000
    1.3339    3.4865    0.0098 O   0  0  0  0  0  0  0  0  0  0  0  0
    2.7841    2.1026    1.9563 O   0  0  0  0  0  0  0  0  0  0  0  0
    2.9392   -0.4380   -0.7328 N   0  0  0  0  0  0  0  0  0  0  0  0
    2.7506    1.6406    0.6030 C   0  0  1  0  0  0  0  0  0  0  0  0
    2.9583    0.1243    0.6107 C   0  0  0  0  0  0  0  0  0  0  0  0
    1.5726   -0.6045   -1.2086 C   0  0  0  0  0  0  0  0  0  0  0  0
    1.4257    2.0654   -0.0264 C   0  0  0  0  0  0  0  0  0  0  0  0
    0.8773   -1.7243   -0.4395 C   0  0  0  0  0  0  0  0  0  0  0  0
    1.5879   -0.8956   -2.7059 C   0  0  0  0  0  0  0  0  0  0  0  0
    0.2163    4.0404   -0.5098 C   0  0  0  0  0  0  0  0  0  0  0  0
    0.0109    5.4177   -0.5322 C   0  0  0  0  0  0  0  0  0  0  0  0
   -1.1588    5.9342   -1.0816 C   0  0  0  0  0  0  0  0  0  0  0  0
   -0.7460    3.1849   -1.0365 C   0  0  0  0  0  0  0  0  0  0  0  0
    0.9528    6.3037   -0.0152 C   0  0  0  0  0  0  0  0  0  0  0  0
   -2.1291    5.0894   -1.6099 C   0  0  0  0  0  0  0  0  0  0  0  0
   -1.9107    3.7157   -1.5811 C   0  0  0  0  0  0  0  0  0  0  0  0
   -1.3714    7.3086   -1.1074 C   0  0  0  0  0  0  0  0  0  0  0  0
    0.7530    7.6800   -0.0349 C   0  0  0  0  0  0  0  0  0  0  0  0
   -0.4214    8.1803   -0.5867 C   0  0  0  0  0  0  0  0  0  0  0  0
    3.5004    2.0671    0.0971 H   0  0  0  0  0  0  0  0  0  0  0  0
    3.8422   -0.0780    1.0324 H   0  0  0  0  0  0  0  0  0  0  0  0
    2.2283   -0.2985    1.1476 H   0  0  0  0  0  0  0  0  0  0  0  0
    1.0735    0.2481   -1.0534 H   0  0  0  0  0  0  0  0  0  0  0  0
    3.3924   -1.3293   -0.7209 H   0  0  0  0  0  0  0  0  0  0  0  0
    1.3881    1.7504   -0.9748 H   0  0  0  0  0  0  0  0  0  0  0  0
    0.6664    1.6665    0.4877 H   0  0  0  0  0  0  0  0  0  0  0  0
   -0.0588   -1.8281   -0.7755 H   0  0  0  0  0  0  0  0  0  0  0  0
    1.3764   -2.5805   -0.5736 H   0  0  0  0  0  0  0  0  0  0  0  0
    0.8589   -1.4983    0.5344 H   0  0  0  0  0  0  0  0  0  0  0  0
    0.6498   -1.0100   -3.0329 H   0  0  0  0  0  0  0  0  0  0  0  0
    2.0189   -0.1336   -3.1893 H   0  0  0  0  0  0  0  0  0  0  0  0
    2.1051   -1.7342   -2.8771 H   0  0  0  0  0  0  0  0  0  0  0  0
    2.6500    3.0934    1.9737 H   0  0  0  0  0  0  0  0  0  0  0  0
   -0.6015    2.1955   -1.0237 H   0  0  0  0  0  0  0  0  0  0  0  0
    1.7960    5.9404    0.3811 H   0  0  0  0  0  0  0  0  0  0  0  0
   -2.9690    5.4629   -2.0036 H   0  0  0  0  0  0  0  0  0  0  0  0
   -2.6025    3.0997   -1.9580 H   0  0  0  0  0  0  0  0  0  0  0  0
   -2.2143    7.6727   -1.5036 H   0  0  0  0  0  0  0  0  0  0  0  0
    1.4421    8.2993    0.3413 H   0  0  0  0  0  0  0  0  0  0  0  0
   -0.5826    9.1669   -0.6090 H   0  0  0  0  0  0  0  0  0  0  0  0
  1  7  1  0  0  0  0
  1 10  1  0  0  0  0
  2  4  1  0  0  0  0
  2 33  1  0  0  0  0
  3  5  1  0  0  0  0
  3  6  1  0  0  0  0
  3 24  1  0  0  0  0
  4  5  1  0  0  0  0
  4  7  1  0  0  0  0
  4 20  1  0  0  0  0
  5 21  1  0  0  0  0
  5 22  1  0  0  0  0
  6  8  1  0  0  0  0
  6  9  1  0  0  0  0
  6 23  1  0  0  0  0
  7 25  1  0  0  0  0
  7 26  1  0  0  0  0
  8 27  1  0  0  0  0
  8 28  1  0  0  0  0
  8 29  1  0  0  0  0
  9 30  1  0  0  0  0
  9 31  1  0  0  0  0
  9 32  1  0  0  0  0
 10 11  1  0  0  0  0
 10 13  2  0  0  0  0
 11 12  1  0  0  0  0
 11 14  2  0  0  0  0
 12 15  1  0  0  0  0
 12 17  2  0  0  0  0
 13 16  1  0  0  0  0
 13 34  1  0  0  0  0
 14 18  1  0  0  0  0
 14 35  1  0  0  0  0
 15 16  2  0  0  0  0
 15 36  1  0  0  0  0
 16 37  1  0  0  0  0
 17 19  1  0  0  0  0
 17 38  1  0  0  0  0
 18 19  2  0  0  0  0
 18 39  1  0  0  0  0
 19 40  1  0  0  0  0
M  END
$$$$
Propranolol
  unicon  03102511263D 1   1.00000     0.00000     0
unicon 1.5.0
 40 41  0  0  0  0            999 V2000
    1.5906    3.3479   -0.6241 O   0  0  0  0  0  0  0  0  0  0  0  0
    2.7841    2.1026    1.9563 O   0  0  0  0  0  0  0  0  0  0  0  0
    2.9392   -0.4380   -0.7328 N   0  0  0  0  0  0  0  0  0  0  0  0
    2.7506    1.6406    0.6030 C   0  0  1  0  0  0  0  0  0  0  0  0
    2.9583    0.1243    0.6107 C   0  0  0  0  0  0  0  0  0  0  0  0
    1.5726   -0.6045   -1.2086 C   0  0  0  0  0  0  0  0  0  0  0  0
    1.4257    2.0654   -0.0264 C   0  0  0  0  0  0  0  0  0  0  0  0
    0.8773   -1.7243   -0.4395 C   0  0  0  0  0  0  0  0  0  0  0  0
    1.5879   -0.8956   -2.7059 C   0  0  0  0  0  0  0  0  0  0  0  0
    2.1803    3.3848   -1.8392 C   0  0  0  0  0  0  0  0  0  0  0  0
    2.3967    4.5780   -2.5243 C   0  0  0  0  0  0  0  0  0  0  0  0
    3.0105    4.5577   -3.7731 C   0  0  0  0  0  0  0  0  0  0  0  0
    2.5781    2.1769   -2.4033 C   0  0  0  0  0  0  0  0  0  0  0  0
    2.0128    5.8054   -1.9898 C   0  0  0  0  0  0  0  0  0  0  0  0
    3.4114    3.3565   -4.3483 C   0  0  0  0  0  0  0  0  0  0  0  0
    3.1891    2.1722   -3.6528 C   0  0  0  0  0  0  0  0  0  0  0  0
    3.2298    5.7450   -4.4636 C   0  0  0  0  0  0  0  0  0  0  0  0
    2.2264    7.0000   -2.6693 C   0  0  0  0  0  0  0  0  0  0  0  0
    2.8402    6.9626   -3.9166 C   0  0  0  0  0  0  0  0  0  0  0  0
    3.5004    2.0671    0.0971 H   0  0  0  0  0  0  0  0  0  0  0  0
    3.8422   -0.0780    1.0324 H   0  0  0  0  0  0  0  0  0  0  0  0
    2.2283   -0.2985    1.1476 H   0  0  0  0  0  0  0  0  0  0  0  0
    1.0735    0.2481   -1.0534 H   0  0  0  0  0  0  0  0  0  0  0  0
    3.3924   -1.3293   -0.7209 H   0  0  0  0  0  0  0  0  0  0  0  0
    1.1572    1.4015   -0.7244 H   0  0  0  0  0  0  0  0  0  0  0  0
    0.7184    2.1120    0.6790 H   0  0  0  0  0  0  0  0  0  0  0  0
   -0.0588   -1.8281   -0.7755 H   0  0  0  0  0  0  0  0  0  0  0  0
    1.3764   -2.5805   -0.5736 H   0  0  0  0  0  0  0  0  0  0  0  0
    0.8589   -1.4983    0.5344 H   0  0  0  0  0  0  0  0  0  0  0  0
    0.6498   -1.0100   -3.0329 H   0  0  0  0  0  0  0  0  0  0  0  0
    2.0189   -0.1336   -3.1893 H   0  0  0  0  0  0  0  0  0  0  0  0
    2.1051   -1.7342   -2.8771 H   0  0  0  0  0  0  0  0  0  0  0  0
    2.6500    3.0934    1.9737 H   0  0  0  0  0  0  0  0  0  0  0  0
    2.4258    1.3183   -1.9139 H   0  0  0  0  0  0  0  0  0  0  0  0
    1.5714    5.8284   -1.0928 H   0  0  0  0  0  0  0  0  0  0  0  0
    3.8517    3.3443   -5.2460 H   0  0  0  0  0  0  0  0  0  0  0  0
    3.4733    1.3032   -4.0580 H   0  0  0  0  0  0  0  0  0  0  0  0
    3.6713    5.7229   -5.3606 H   0  0  0  0  0  0  0  0  0  0  0  0
    1.9435    7.8710   -2.2678 H   0  0  0  0  0  0  0  0  0  0  0  0
    3.0014    7.8114   -4.4201 H   0  0  0  0  0  0  0  0  0  0  0  0
  1  7  1  0  0  0  0
  1 10  1  0  0  0  0
  2  4  1  0  0  0  0
  2 33  1  0  0  0  0
  3  5  1  0  0  0  0
  3  6  1  0  0  0  0
  3 24  1  0  0  0  0
  4  5  1  0  0  0  0
  4  7  1  0  0  0  0
  4 20  1  0  0  0  0
  5 21  1  0  0  0  0
  5 22  1  0  0  0  0
  6  8  1  0  0  0  0
  6  9  1  0  0  0  0
  6 23  1  0  0  0  0
  7 25  1  0  0  0  0
  7 26  1  0  0  0  0
  8 27  1  0  0  0  0
  8 28  1  0  0  0  0
  8 29  1  0  0  0  0
  9 30  1  0  0  0  0
  9 31  1  0  0  0  0
  9 32  1  0  0  0  0
 10 11  1  0  0  0  0
 10 13  2  0  0  0  0
 11 12  1  0  0  0  0
 11 14  2  0  0  0  0
 12 15  1  0  0  0  0
 12 17  2  0  0  0  0
 13 16  1  0  0  0  0
 13 34  1  0  0  0  0
 14 18  1  0  0  0  0
 14 35  1  0  0  0  0
 15 16  2  0  0  0  0
 15 36  1  0  0  0  0
 16 37  1  0  0  0  0
 17 19  1  0  0  0  0
 17 38  1  0  0  0  0
 18 19  2  0  0  0  0
 18 39  1  0  0  0  0
 19 40  1  0  0  0  0
M  END
$$$$
Propranolol
  unicon  03102511263D 1   1.00000     0.00000     0
unicon 1.5.0
 40 41  0  0  0  0            999 V2000
    1.5906    3.3479   -0.6241 O   0  0  0  0  0  0  0  0  0  0  0  0
    2.7841    2.1026    1.9563 O   0  0  0  0  0  0  0  0  0  0  0  0
    2.9392   -0.4380   -0.7328 N   0  0  0  0  0  0  0  0  0  0  0  0
    2.7506    1.6406    0.6030 C   0  0  1  0  0  0  0  0  0  0  0  0
    2.9583    0.1243    0.6107 C   0  0  0  0  0  0  0  0  0  0  0  0
    1.5726   -0.6045   -1.2086 C   0  0  0  0  0  0  0  0  0  0  0  0
    1.4257    2.0654   -0.0264 C   0  0  0  0  0  0  0  0  0  0  0  0
    0.8773   -1.7243   -0.4395 C   0  0  0  0  0  0  0  0  0  0  0  0
    1.5879   -0.8956   -2.7059 C   0  0  0  0  0  0  0  0  0  0  0  0
    1.5425    4.4173    0.2002 C   0  0  0  0  0  0  0  0  0  0  0  0
    1.6902    5.7217   -0.2652 C   0  0  0  0  0  0  0  0  0  0  0  0
    1.6304    6.7866    0.6287 C   0  0  0  0  0  0  0  0  0  0  0  0
    1.3351    4.1818    1.5556 C   0  0  0  0  0  0  0  0  0  0  0  0
    1.8980    5.9948   -1.6150 C   0  0  0  0  0  0  0  0  0  0  0  0
    1.4250    6.5641    1.9861 C   0  0  0  0  0  0  0  0  0  0  0  0
    1.2790    5.2561    2.4373 C   0  0  0  0  0  0  0  0  0  0  0  0
    1.7772    8.0921    0.1716 C   0  0  0  0  0  0  0  0  0  0  0  0
    2.0461    7.2953   -2.0854 C   0  0  0  0  0  0  0  0  0  0  0  0
    1.9846    8.3484   -1.1793 C   0  0  0  0  0  0  0  0  0  0  0  0
    3.5004    2.0671    0.0971 H   0  0  0  0  0  0  0  0  0  0  0  0
    3.8422   -0.0780    1.0324 H   0  0  0  0  0  0  0  0  0  0  0  0
    2.2283   -0.2985    1.1476 H   0  0  0  0  0  0  0  0  0  0  0  0
    1.0735    0.2481   -1.0534 H   0  0  0  0  0  0  0  0  0  0  0  0
    3.3924   -1.3293   -0.7209 H   0  0  0  0  0  0  0  0  0  0  0  0
    1.1572    1.4015   -0.7244 H   0  0  0  0  0  0  0  0  0  0  0  0
    0.7184    2.1120    0.6790 H   0  0  0  0  0  0  0  0  0  0  0  0
   -0.0588   -1.8281   -0.7755 H   0  0  0  0  0  0  0  0  0  0  0  0
    1.3764   -2.5805   -0.5736 H   0  0  0  0  0  0  0  0  0  0  0  0
    0.8589   -1.4983    0.5344 H   0  0  0  0  0  0  0  0  0  0  0  0
    0.6498   -1.0100   -3.0329 H   0  0  0  0  0  0  0  0  0  0  0  0
    2.0189   -0.1336   -3.1893 H   0  0  0  0  0  0  0  0  0  0  0  0
    2.1051   -1.7342   -2.8771 H   0  0  0  0  0  0  0  0  0  0  0  0
    2.6500    3.0934    1.9737 H   0  0  0  0  0  0  0  0  0  0  0  0
    1.2271    3.2468    1.8935 H   0  0  0  0  0  0  0  0  0  0  0  0
    1.9420    5.2351   -2.2637 H   0  0  0  0  0  0  0  0  0  0  0  0
    1.3830    7.3309    2.6267 H   0  0  0  0  0  0  0  0  0  0  0  0
    1.1313    5.0856    3.4115 H   0  0  0  0  0  0  0  0  0  0  0  0
    1.7333    8.8524    0.8196 H   0  0  0  0  0  0  0  0  0  0  0  0
    2.1943    7.4701   -3.0588 H   0  0  0  0  0  0  0  0  0  0  0  0
    2.0896    9.2900   -1.4992 H   0  0  0  0  0  0  0  0  0  0  0  0
  1  7  1  0  0  0  0
  1 10  1  0  0  0  0
  2  4  1  0  0  0  0
  2 33  1  0  0  0  0
  3  5  1  0  0  0  0
  3  6  1  0  0  0  0
  3 24  1  0  0  0  0
  4  5  1  0  0  0  0
  4  7  1  0  0  0  0
  4 20  1  0  0  0  0
  5 21  1  0  0  0  0
  5 22  1  0  0  0  0
  6  8  1  0  0  0  0
  6  9  1  0  0  0  0
  6 23  1  0  0  0  0
  7 25  1  0  0  0  0
  7 26  1  0  0  0  0
  8 27  1  0  0  0  0
  8 28  1  0  0  0  0
  8 29  1  0  0  0  0
  9 30  1  0  0  0  0
  9 31  1  0  0  0  0
  9 32  1  0  0  0  0
 10 11  1  0  0  0  0
 10 13  2  0  0  0  0
 11 12  1  0  0  0  0
 11 14  2  0  0  0  0
 12 15  1  0  0  0  0
 12 17  2  0  0  0  0
 13 16  1  0  0  0  0
 13 34  1  0  0  0  0
 14 18  1  0  0  0  0
 14 35  1  0  0  0  0
 15 16  2  0  0  0  0
 15 36  1  0  0  0  0
 16 37  1  0  0  0  0
 17 19  1  0  0  0  0
 17 38  1  0  0  0  0
 18 19  2  0  0  0  0
 18 39  1  0  0  0  0
 19 40  1  0  0  0  0
M  END
$$$$
