Propranolol
  unicon  03102511263D 1   1.00000     0.00000     0
unicon 1.5.0
 40 41  0  0  0  0            999 V2000
    1.8583    0.2187    3.6135 O   0  0  0  0  0  0  0  0  0  0  0  0
    1.6384   -0.1751    4.8870 C   0  0  0  0  0  0  0  0  0  0  0  0
    1.8608   -1.4852    5.3077 C   0  0  0  0  0  0  0  0  0  0  0  0
    1.6157   -1.8344    6.6335 C   0  0  0  0  0  0  0  0  0  0  0  0
    1.1516   -0.8879    7.5411 C   0  0  0  0  0  0  0  0  0  0  0  0
    0.9331    0.4159    7.1084 C   0  0  0  0  0  0  0  0  0  0  0  0
    1.1736    0.7788    5.7872 C   0  0  0  0  0  0  0  0  0  0  0  0
    1.8289   -3.1356    7.0777 C   0  0  0  0  0  0  0  0  0  0  0  0
    2.2926   -4.1055    6.1941 C   0  0  0  0  0  0  0  0  0  0  0  0
    2.5437   -3.7753    4.8659 C   0  0  0  0  0  0  0  0  0  0  0  0
    2.3250   -2.4703    4.4409 C   0  0  0  0  0  0  0  0  0  0  0  0
    1.5850    1.5850    3.3402 C   0  0  0  0  0  0  0  0  0  0  0  0
    1.8776    1.8776    1.8776 C   0  0  1  0  0  0  0  0  0  0  0  0
    3.2440    1.6043    1.6043 O   0  0  0  0  0  0  0  0  0  0  0  0
    1.0000    1.0000    1.0000 C   0  0  0  0  0  0  0  0  0  0  0  0
    1.2829    1.2829   -0.4145 N   0  0  0  0  0  0  0  0  0  0  0  0
    0.5758    2.5061   -0.8205 C   0  0  0  0  0  0  0  0  0  0  0  0
    0.8684    2.7986   -2.2831 C   0  0  0  0  0  0  0  0  0  0  0  0
   -0.9200    2.3130   -0.6318 C   0  0  0  0  0  0  0  0  0  0  0  0
    1.6851    2.8398    1.6851 H   0  0  0  0  0  0  0  0  0  0  0  0
    0.9772   -1.1416    8.4925 H   0  0  0  0  0  0  0  0  0  0  0  0
    0.5989    1.1012    7.7554 H   0  0  0  0  0  0  0  0  0  0  0  0
    1.0135    1.7189    5.4863 H   0  0  0  0  0  0  0  0  0  0  0  0
    1.6489   -3.3738    8.0321 H   0  0  0  0  0  0  0  0  0  0  0  0
    2.4455   -5.0406    6.5140 H   0  0  0  0  0  0  0  0  0  0  0  0
    2.8769   -4.4676    4.2259 H   0  0  0  0  0  0  0  0  0  0  0  0
    2.5061   -2.2326    3.4866 H   0  0  0  0  0  0  0  0  0  0  0  0
    2.1624    2.1624    3.9175 H   0  0  0  0  0  0  0  0  0  0  0  0
    0.6228    1.7775    3.5326 H   0  0  0  0  0  0  0  0  0  0  0  0
    3.4364    1.7967    0.6420 H   0  0  0  0  0  0  0  0  0  0  0  0
    0.0377    1.1925    1.1925 H   0  0  0  0  0  0  0  0  0  0  0  0
    1.1925    0.0377    1.1925 H   0  0  0  0  0  0  0  0  0  0  0  0
    0.9723    0.5162   -0.9764 H   0  0  0  0  0  0  0  0  0  0  0  0
    0.8865    3.2727   -0.2586 H   0  0  0  0  0  0  0  0  0  0  0  0
    0.3874    3.6307   -2.5593 H   0  0  0  0  0  0  0  0  0  0  0  0
    1.8525    2.9256   -2.4073 H   0  0  0  0  0  0  0  0  0  0  0  0
    0.5577    2.0319   -2.8450 H   0  0  0  0  0  0  0  0  0  0  0  0
   -1.4010    3.1450   -0.9079 H   0  0  0  0  0  0  0  0  0  0  0  0
   -1.2306    1.5463   -1.1936 H   0  0  0  0  0  0  0  0  0  0  0  0
   -1.1124    2.1205    0.3305 H   0  0  0  0  0  0  0  0  0  0  0  0
  1  2  1  0  0  0  0
  2  3  1  0  0  0  0
  3  4  2  0  0  0  0
  4  5  1  0  0  0  0
  5  6  2  0  0  0  0
  6  7  1  0  0  0  0
  7  2  2  0  0  0  0
  4  8  1  0  0  0  0
  8  9  2  0  0  0  0
  9 10  1  0  0  0  0
 10 11  2  0  0  0  0
 11  3  1  0  0  0  0
  1 12  1  0  0  0  0
 12 13  1  0  0  0  0
 13 14  1  0  0  0  0
 13 15  1  0  0  0  0
 15 16  1  0  0  0  0
 16 17  1  0  0  0  0
 17 18  1  0  0  0  0
 17 19  1  0  0  0  0
 13 20  1  0  0  0  0
  5 21  1  0  0  0  0
  6 22  1  0  0  0  0
  7 23  1  0  0  0  0
  8 24  1  0  0  0  0
  9 25  1  0  0  0  0
 10 26  1  0  0  0  0
 11 27  1  0  0  0  0
 12 28  1  0  0  0  0
 12 29  1  0  0  0  0
 14 30  1  0  0  0  0
 15 31  1  0  0  0  0
 15 32  1  0  0  0  0
 16 33  1  0  0  0  0
 17 34  1  0  0  0  0
 18 35  1  0  0  0  0
 18 36  1  0  0  0  0
 18 37  1  0  0  0  0
 19 38  1  0  0  0  0
 19 39  1  0  0  0  0
 19 40  1  0  0  0  0
M  END
$$$$
