1r5g_AO1_A_501
          12152515273D 1   1.00000     0.00000     0
            
 50 51  0  0  0  0            999 V2000
   20.0340   31.7290   15.1370 S   0  0  0  0  0  0  0  0  0  0  0  0
   17.7060   27.4890   16.9060 O   0  0  0  0  0  0  0  0  0  0  0  0
   19.7450   26.1250   17.5420 O   0  0  0  0  0  0  0  0  0  0  0  0
   20.7050   27.9380   15.6500 N   0  0  0  0  0  0  0  0  0  0  0  0
   18.1360   27.9950   19.3360 N   0  0  0  0  0  0  0  0  0  0  0  0
   19.2480   33.7340   16.8230 C   0  0  0  0  0  0  0  0  0  0  0  0
   16.9370   27.9400   21.4610 C   0  0  0  0  0  0  0  0  0  0  0  0
   18.9690   33.1550   15.4470 C   0  0  0  0  0  0  0  0  0  0  0  0
   18.9110   30.5100   15.4980 C   0  0  0  0  0  0  0  0  0  0  0  0
   11.6110   29.5330   18.6740 C   0  0  0  0  0  0  0  0  0  0  0  0
   12.2550   28.2310   18.9990 C   0  0  0  0  0  0  0  0  0  0  0  0
   16.0380   32.0180   19.1280 C   0  0  0  0  0  0  0  0  0  0  0  0
   19.5070   29.8660   16.7390 C   0  0  0  0  0  0  0  0  0  0  0  0
   12.4150   30.7800   18.6340 C   0  0  0  0  0  0  0  0  0  0  0  0
   14.5970   32.0100   18.8640 C   0  0  0  0  0  0  0  0  0  0  0  0
   13.7050   28.1490   19.2890 C   0  0  0  0  0  0  0  0  0  0  0  0
   16.7730   30.7700   19.4660 C   0  0  0  0  0  0  0  0  0  0  0  0
   17.9770   27.5740   18.0830 C   0  0  0  0  0  0  0  0  0  0  0  0
   19.3960   27.5050   17.7830 C   0  0  2  0  0  0  0  0  0  0  0  0
   19.5750   28.3780   16.4560 C   0  0  2  0  0  0  0  0  0  0  0  0
   16.8550   28.0660   19.9400 C   0  0  1  0  0  0  0  0  0  0  0  0
   13.8530   30.7560   18.9130 C   0  0  0  0  0  0  0  0  0  0  0  0
   16.0610   29.4040   19.5460 C   0  0  0  0  0  0  0  0  0  0  0  0
   14.5610   29.3950   19.2600 C   0  0  0  0  0  0  0  0  0  0  0  0
   20.7208   26.0595   17.3335 H   0  0  0  0  0  0  0  0  0  0  0  0
   20.6575   26.9474   15.5220 H   0  0  0  0  0  0  0  0  0  0  0  0
   20.6754   28.3910   14.7590 H   0  0  0  0  0  0  0  0  0  0  0  0
   19.0059   28.2214   19.7742 H   0  0  0  0  0  0  0  0  0  0  0  0
   18.6521   34.5214   16.9804 H   0  0  0  0  0  0  0  0  0  0  0  0
   19.0719   33.0382   17.5194 H   0  0  0  0  0  0  0  0  0  0  0  0
   20.2037   34.0236   16.8753 H   0  0  0  0  0  0  0  0  0  0  0  0
   16.0174   27.9944   21.8500 H   0  0  0  0  0  0  0  0  0  0  0  0
   17.3489   27.0609   21.7009 H   0  0  0  0  0  0  0  0  0  0  0  0
   17.4983   28.6822   21.8272 H   0  0  0  0  0  0  0  0  0  0  0  0
   18.0121   32.8687   15.3977 H   0  0  0  0  0  0  0  0  0  0  0  0
   19.1439   33.8540   14.7536 H   0  0  0  0  0  0  0  0  0  0  0  0
   18.8397   29.8517   14.7487 H   0  0  0  0  0  0  0  0  0  0  0  0
   18.0086   30.8959   15.6897 H   0  0  0  0  0  0  0  0  0  0  0  0
   10.6303   29.5678   18.4814 H   0  0  0  0  0  0  0  0  0  0  0  0
   11.7003   27.3993   19.0219 H   0  0  0  0  0  0  0  0  0  0  0  0
   16.5388   32.8822   19.0798 H   0  0  0  0  0  0  0  0  0  0  0  0
   18.9252   30.0411   17.5332 H   0  0  0  0  0  0  0  0  0  0  0  0
   20.4232   30.2279   16.9107 H   0  0  0  0  0  0  0  0  0  0  0  0
   11.9694   31.6477   18.4138 H   0  0  0  0  0  0  0  0  0  0  0  0
   14.1232   32.8643   18.6502 H   0  0  0  0  0  0  0  0  0  0  0  0
   14.1200   27.2652   19.5051 H   0  0  0  0  0  0  0  0  0  0  0  0
   17.7555   30.8178   19.6463 H   0  0  0  0  0  0  0  0  0  0  0  0
   19.9375   27.8833   18.5338 H   0  0  0  0  0  0  0  0  0  0  0  0
   18.7663   28.1802   15.9021 H   0  0  0  0  0  0  0  0  0  0  0  0
   16.3212   27.2903   19.6032 H   0  0  0  0  0  0  0  0  0  0  0  0
  1  8  1  0  0  0  0
  1  9  1  0  0  0  0
  2 18  2  0  0  0  0
  3 19  1  0  0  0  0
  4 20  1  0  0  0  0
  5 18  1  0  0  0  0
  5 21  1  0  0  0  0
  6  8  1  0  0  0  0
  7 21  1  0  0  0  0
  9 13  1  0  0  0  0
 10 11  2  0  0  0  0
 10 14  1  0  0  0  0
 11 16  1  0  0  0  0
 12 15  2  0  0  0  0
 12 17  1  0  0  0  0
 13 20  1  0  0  0  0
 14 22  2  0  0  0  0
 15 22  1  0  0  0  0
 16 24  2  0  0  0  0
 17 23  2  0  0  0  0
 18 19  1  0  0  0  0
 19 20  1  0  0  0  0
 21 23  1  0  0  0  0
 22 24  1  0  0  0  0
 23 24  1  0  0  0  0
  3 25  1  0  0  0  0
  4 26  1  0  0  0  0
  4 27  1  0  0  0  0
  5 28  1  0  0  0  0
  6 29  1  0  0  0  0
  6 30  1  0  0  0  0
  6 31  1  0  0  0  0
  7 32  1  0  0  0  0
  7 33  1  0  0  0  0
  7 34  1  0  0  0  0
  8 35  1  0  0  0  0
  8 36  1  0  0  0  0
  9 37  1  0  0  0  0
  9 38  1  0  0  0  0
 10 39  1  0  0  0  0
 11 40  1  0  0  0  0
 12 41  1  0  0  0  0
 13 42  1  0  0  0  0
 13 43  1  0  0  0  0
 14 44  1  0  0  0  0
 15 45  1  0  0  0  0
 16 46  1  0  0  0  0
 17 47  1  0  0  0  0
 19 48  1  0  0  0  0
 20 49  1  0  0  0  0
 21 50  1  0  0  0  0
M  END
$$$$
