BEN_A_401
  unicon  05052618033D 1   1.00000     0.00000     0
unicon 1.5.0   
 17 17  0  0  0  0            999 V2000
  -21.7620   20.2740   29.6490 N   0  0  0  0  0  0  0  0  0  0  0  0
  -19.8840   19.4730   30.7260 N   0  0  0  0  0  0  0  0  0  0  0  0
  -18.4690   19.7610   25.9330 C   0  0  0  0  0  0  0  0  0  0  0  0
  -18.3280   18.7130   26.8590 C   0  0  0  0  0  0  0  0  0  0  0  0
  -19.2450   20.8690   26.2430 C   0  0  0  0  0  0  0  0  0  0  0  0
  -18.9910   18.7360   28.0760 C   0  0  0  0  0  0  0  0  0  0  0  0
  -19.8830   20.9120   27.4890 C   0  0  0  0  0  0  0  0  0  0  0  0
  -20.4760   19.8800   29.6220 C   0  0  0  0  0  0  0  0  0  0  0  0
  -19.7710   19.8420   28.4040 C   0  0  0  0  0  0  0  0  0  0  0  0
  -22.2082   20.5824   28.8089 H   0  0  0  0  0  0  0  0  0  0  0  0
  -22.2717   20.2585   30.5092 H   0  0  0  0  0  0  0  0  0  0  0  0
  -18.9279   19.1808   30.7022 H   0  0  0  0  0  0  0  0  0  0  0  0
  -18.0082   19.7080   25.0471 H   0  0  0  0  0  0  0  0  0  0  0  0
  -17.7386   17.9366   26.6357 H   0  0  0  0  0  0  0  0  0  0  0  0
  -19.3464   21.6203   25.5909 H   0  0  0  0  0  0  0  0  0  0  0  0
  -18.9102   17.9676   28.7109 H   0  0  0  0  0  0  0  0  0  0  0  0
  -20.4272   21.7141   27.7350 H   0  0  0  0  0  0  0  0  0  0  0  0
  1  8  1  0  0  0  0
  2  8  2  0  0  0  0
  3  4  2  0  0  0  0
  3  5  1  0  0  0  0
  4  6  1  0  0  0  0
  5  7  2  0  0  0  0
  6  9  2  0  0  0  0
  7  9  1  0  0  0  0
  8  9  1  0  0  0  0
  1 10  1  0  0  0  0
  1 11  1  0  0  0  0
  2 12  1  0  0  0  0
  3 13  1  0  0  0  0
  4 14  1  0  0  0  0
  5 15  1  0  0  0  0
  6 16  1  0  0  0  0
  7 17  1  0  0  0  0
M  END
$$$$
LCS_A_402
  unicon  05052618033D 1   1.00000     0.00000     0
unicon 1.5.0   
 38 39  0  0  0  0            999 V2000
   -0.1070   30.6630   12.8740 P   0  0  0  0  0  0  0  0  0  0  0  0
   -0.9600   29.8330   12.1950 O   0  0  0  0  0  0  0  0  0  0  0  0
   -0.2350   32.0060   12.5980 O   0  0  0  0  0  0  0  0  0  0  0  0
    1.1580   30.1000   12.7650 O   0  0  0  0  0  0  0  0  0  0  0  0
   -0.3910   38.2490   12.1460 O   0  0  0  0  0  0  0  0  0  0  0  0
   -0.9860   35.3620   17.6230 O   0  0  0  0  0  0  0  0  0  0  0  0
   -0.6510   30.6790   14.2940 O   0  0  0  0  0  0  0  0  0  0  0  0
   -2.1620   35.6140   11.3330 O   0  0  0  0  0  0  0  0  0  0  0  0
   -2.0110   36.8970   11.3740 N   0  0  0  0  0  0  0  0  0  0  0  0
   -2.4130   32.1240   18.0270 N   0  0  0  0  0  0  0  0  0  0  0  0
   -1.1990   35.2890   13.8120 N   0  0  0  0  0  0  0  0  0  0  0  0
   -2.2060   33.7930   19.6830 C   0  0  0  0  0  0  0  0  0  0  0  0
   -1.7340   31.5110   14.4980 C   0  0  0  0  0  0  0  0  0  0  0  0
   -0.9710   35.0140   11.7080 C   0  0  0  0  0  0  0  0  0  0  0  0
   -2.3060   31.6390   16.8380 C   0  0  0  0  0  0  0  0  0  0  0  0
   -0.5220   34.5200   14.8410 C   0  0  0  0  0  0  0  0  0  0  0  0
   -0.9450   37.1610   12.0970 C   0  0  0  0  0  0  0  0  0  0  0  0
   -1.3920   34.1660   17.2670 C   0  0  0  0  0  0  0  0  0  0  0  0
   -2.0120   33.3240   18.2900 C   0  0  0  0  0  0  0  0  0  0  0  0
   -0.4580   35.9030   12.7440 C   0  0  1  0  0  0  0  0  0  0  0  0
   -1.7350   32.2910   15.7640 C   0  0  0  0  0  0  0  0  0  0  0  0
   -1.2280   33.6870   15.9060 C   0  0  0  0  0  0  0  0  0  0  0  0
   -0.7879   28.8855   12.4643 H   0  0  0  0  0  0  0  0  0  0  0  0
    0.4275   32.5224   13.1406 H   0  0  0  0  0  0  0  0  0  0  0  0
    0.4178   38.3728   12.7209 H   0  0  0  0  0  0  0  0  0  0  0  0
   -0.5576   35.9654   16.9504 H   0  0  0  0  0  0  0  0  0  0  0  0
   -1.6866   36.0255   14.2809 H   0  0  0  0  0  0  0  0  0  0  0  0
   -1.8618   34.7278   19.7710 H   0  0  0  0  0  0  0  0  0  0  0  0
   -3.1800   33.7738   19.9086 H   0  0  0  0  0  0  0  0  0  0  0  0
   -1.7070   33.1938   20.3090 H   0  0  0  0  0  0  0  0  0  0  0  0
   -2.5589   30.9458   14.4875 H   0  0  0  0  0  0  0  0  0  0  0  0
   -1.7659   32.1615   13.7391 H   0  0  0  0  0  0  0  0  0  0  0  0
   -0.3379   34.9613   10.9357 H   0  0  0  0  0  0  0  0  0  0  0  0
   -1.1312   34.0961   12.0710 H   0  0  0  0  0  0  0  0  0  0  0  0
   -2.6645   30.7187   16.6813 H   0  0  0  0  0  0  0  0  0  0  0  0
    0.0381   35.1787   15.3433 H   0  0  0  0  0  0  0  0  0  0  0  0
    0.0723   33.8818   14.3516 H   0  0  0  0  0  0  0  0  0  0  0  0
    0.5343   35.8627   12.8608 H   0  0  0  0  0  0  0  0  0  0  0  0
  1  2  1  0  0  0  0
  1  3  1  0  0  0  0
  1  4  2  0  0  0  0
  1  7  1  0  0  0  0
  5 17  1  0  0  0  0
  6 18  1  0  0  0  0
  7 13  1  0  0  0  0
  8  9  1  0  0  0  0
  8 14  1  0  0  0  0
  9 17  2  0  0  0  0
 10 15  2  0  0  0  0
 10 19  1  0  0  0  0
 11 16  1  0  0  0  0
 11 20  1  0  0  0  0
 12 19  1  0  0  0  0
 13 21  1  0  0  0  0
 14 20  1  0  0  0  0
 15 21  1  0  0  0  0
 16 22  1  0  0  0  0
 17 20  1  0  0  0  0
 18 19  2  0  0  0  0
 18 22  1  0  0  0  0
 21 22  2  0  0  0  0
  2 23  1  0  0  0  0
  3 24  1  0  0  0  0
  5 25  1  0  0  0  0
  6 26  1  0  0  0  0
 11 27  1  0  0  0  0
 12 28  1  0  0  0  0
 12 29  1  0  0  0  0
 12 30  1  0  0  0  0
 13 31  1  0  0  0  0
 13 32  1  0  0  0  0
 14 33  1  0  0  0  0
 14 34  1  0  0  0  0
 15 35  1  0  0  0  0
 16 36  1  0  0  0  0
 16 37  1  0  0  0  0
 20 38  1  0  0  0  0
M  END
$$$$
BEN_B_401
  unicon  05052618033D 1   1.00000     0.00000     0
unicon 1.5.0   
 17 17  0  0  0  0            999 V2000
   25.6010   58.5960   34.3090 N   0  0  0  0  0  0  0  0  0  0  0  0
   26.3880   57.0130   32.9240 N   0  0  0  0  0  0  0  0  0  0  0  0
   21.8520   58.1610   31.0320 C   0  0  0  0  0  0  0  0  0  0  0  0
   21.8850   58.5310   32.3760 C   0  0  0  0  0  0  0  0  0  0  0  0
   22.9930   57.6810   30.4270 C   0  0  0  0  0  0  0  0  0  0  0  0
   23.0540   58.4320   33.1120 C   0  0  0  0  0  0  0  0  0  0  0  0
   24.1680   57.5840   31.1610 C   0  0  0  0  0  0  0  0  0  0  0  0
   25.4090   57.8410   33.2530 C   0  0  0  0  0  0  0  0  0  0  0  0
   24.2100   57.9430   32.5100 C   0  0  0  0  0  0  0  0  0  0  0  0
   24.8921   59.2386   34.5998 H   0  0  0  0  0  0  0  0  0  0  0  0
   26.4562   58.5288   34.8229 H   0  0  0  0  0  0  0  0  0  0  0  0
   26.2915   56.4160   32.1276 H   0  0  0  0  0  0  0  0  0  0  0  0
   21.0035   58.2437   30.5093 H   0  0  0  0  0  0  0  0  0  0  0  0
   21.0535   58.8724   32.8143 H   0  0  0  0  0  0  0  0  0  0  0  0
   22.9752   57.4044   29.4662 H   0  0  0  0  0  0  0  0  0  0  0  0
   23.0676   58.7107   34.0723 H   0  0  0  0  0  0  0  0  0  0  0  0
   24.9991   57.2511   30.7155 H   0  0  0  0  0  0  0  0  0  0  0  0
  1  8  1  0  0  0  0
  2  8  2  0  0  0  0
  3  4  2  0  0  0  0
  3  5  1  0  0  0  0
  4  6  1  0  0  0  0
  5  7  2  0  0  0  0
  6  9  2  0  0  0  0
  7  9  1  0  0  0  0
  8  9  1  0  0  0  0
  1 10  1  0  0  0  0
  1 11  1  0  0  0  0
  2 12  1  0  0  0  0
  3 13  1  0  0  0  0
  4 14  1  0  0  0  0
  5 15  1  0  0  0  0
  6 16  1  0  0  0  0
  7 17  1  0  0  0  0
M  END
$$$$
LCS_B_402
  unicon  05052618033D 1   1.00000     0.00000     0
unicon 1.5.0   
 38 39  0  0  0  0            999 V2000
    5.8670   44.1270   48.0490 P   0  0  0  0  0  0  0  0  0  0  0  0
    4.5580   44.5480   48.3320 O   0  0  0  0  0  0  0  0  0  0  0  0
    6.9610   45.0030   48.3130 O   0  0  0  0  0  0  0  0  0  0  0  0
    6.1010   42.7410   48.2410 O   0  0  0  0  0  0  0  0  0  0  0  0
   -1.2730   45.3640   46.2400 O   0  0  0  0  0  0  0  0  0  0  0  0
    2.3540   44.1270   42.0910 O   0  0  0  0  0  0  0  0  0  0  0  0
    5.8470   44.2510   46.5020 O   0  0  0  0  0  0  0  0  0  0  0  0
    1.0350   47.4290   47.3890 O   0  0  0  0  0  0  0  0  0  0  0  0
   -0.2060   47.0310   47.3560 N   0  0  0  0  0  0  0  0  0  0  0  0
    5.8080   45.1150   42.2400 N   0  0  0  0  0  0  0  0  0  0  0  0
    1.4520   44.6020   45.4870 N   0  0  0  0  0  0  0  0  0  0  0  0
    4.6520   44.5850   40.2770 C   0  0  0  0  0  0  0  0  0  0  0  0
    5.3560   45.3780   45.8580 C   0  0  0  0  0  0  0  0  0  0  0  0
    1.9290   46.3660   47.1310 C   0  0  0  0  0  0  0  0  0  0  0  0
    6.0200   45.3110   43.4940 C   0  0  0  0  0  0  0  0  0  0  0  0
    2.8270   44.5250   45.2440 C   0  0  0  0  0  0  0  0  0  0  0  0
   -0.2740   45.8520   46.7610 C   0  0  0  0  0  0  0  0  0  0  0  0
    3.4960   44.4880   42.6010 C   0  0  0  0  0  0  0  0  0  0  0  0
    4.6600   44.7230   41.7470 C   0  0  0  0  0  0  0  0  0  0  0  0
    1.0570   45.1770   46.7640 C   0  0  1  0  0  0  0  0  0  0  0  0
    5.0440   45.1300   44.4230 C   0  0  0  0  0  0  0  0  0  0  0  0
    3.6840   44.7200   44.0240 C   0  0  0  0  0  0  0  0  0  0  0  0
    3.9147   43.8215   48.0906 H   0  0  0  0  0  0  0  0  0  0  0  0
    7.8170   44.5538   48.0571 H   0  0  0  0  0  0  0  0  0  0  0  0
   -1.2238   44.4611   45.8130 H   0  0  0  0  0  0  0  0  0  0  0  0
    1.5671   43.9700   42.6878 H   0  0  0  0  0  0  0  0  0  0  0  0
    1.0818   43.6741   45.4425 H   0  0  0  0  0  0  0  0  0  0  0  0
    3.7473   44.2841   39.9754 H   0  0  0  0  0  0  0  0  0  0  0  0
    4.8666   45.4674   39.8582 H   0  0  0  0  0  0  0  0  0  0  0  0
    5.3367   43.9101   40.0018 H   0  0  0  0  0  0  0  0  0  0  0  0
    6.0418   46.1035   45.9155 H   0  0  0  0  0  0  0  0  0  0  0  0
    4.5199   45.6722   46.3210 H   0  0  0  0  0  0  0  0  0  0  0  0
    2.4726   46.1619   47.9452 H   0  0  0  0  0  0  0  0  0  0  0  0
    2.5384   46.5988   46.3731 H   0  0  0  0  0  0  0  0  0  0  0  0
    6.9278   45.6046   43.7935 H   0  0  0  0  0  0  0  0  0  0  0  0
    3.0559   43.5959   45.5345 H   0  0  0  0  0  0  0  0  0  0  0  0
    3.2084   45.1813   45.8950 H   0  0  0  0  0  0  0  0  0  0  0  0
    1.0936   44.4837   47.4837 H   0  0  0  0  0  0  0  0  0  0  0  0
  1  2  1  0  0  0  0
  1  3  1  0  0  0  0
  1  4  2  0  0  0  0
  1  7  1  0  0  0  0
  5 17  1  0  0  0  0
  6 18  1  0  0  0  0
  7 13  1  0  0  0  0
  8  9  1  0  0  0  0
  8 14  1  0  0  0  0
  9 17  2  0  0  0  0
 10 15  2  0  0  0  0
 10 19  1  0  0  0  0
 11 16  1  0  0  0  0
 11 20  1  0  0  0  0
 12 19  1  0  0  0  0
 13 21  1  0  0  0  0
 14 20  1  0  0  0  0
 15 21  1  0  0  0  0
 16 22  1  0  0  0  0
 17 20  1  0  0  0  0
 18 19  2  0  0  0  0
 18 22  1  0  0  0  0
 21 22  2  0  0  0  0
  2 23  1  0  0  0  0
  3 24  1  0  0  0  0
  5 25  1  0  0  0  0
  6 26  1  0  0  0  0
 11 27  1  0  0  0  0
 12 28  1  0  0  0  0
 12 29  1  0  0  0  0
 12 30  1  0  0  0  0
 13 31  1  0  0  0  0
 13 32  1  0  0  0  0
 14 33  1  0  0  0  0
 14 34  1  0  0  0  0
 15 35  1  0  0  0  0
 16 36  1  0  0  0  0
 16 37  1  0  0  0  0
 20 38  1  0  0  0  0
M  END
$$$$
LCS_C_401
  unicon  05052618033D 1   1.00000     0.00000     0
unicon 1.5.0   
 38 39  0  0  0  0            999 V2000
   27.7360   72.1170    9.0210 P   0  0  0  0  0  0  0  0  0  0  0  0
   28.5510   72.9130    9.8820 O   0  0  0  0  0  0  0  0  0  0  0  0
   28.3040   70.8140    9.1770 O   0  0  0  0  0  0  0  0  0  0  0  0
   27.8560   72.8240    7.7640 O   0  0  0  0  0  0  0  0  0  0  0  0
   22.5280   71.1340    4.1100 O   0  0  0  0  0  0  0  0  0  0  0  0
   21.1570   72.6390    9.3340 O   0  0  0  0  0  0  0  0  0  0  0  0
   26.3530   72.1570    9.7920 O   0  0  0  0  0  0  0  0  0  0  0  0
   24.8290   69.1800    5.6240 O   0  0  0  0  0  0  0  0  0  0  0  0
   23.8790   69.4040    4.7170 N   0  0  0  0  0  0  0  0  0  0  0  0
   22.8510   71.5420   12.5080 N   0  0  0  0  0  0  0  0  0  0  0  0
   23.2320   71.6850    7.0400 N   0  0  0  0  0  0  0  0  0  0  0  0
   20.5290   72.2970   12.3170 C   0  0  0  0  0  0  0  0  0  0  0  0
   25.8190   71.0040   10.3910 C   0  0  0  0  0  0  0  0  0  0  0  0
   25.1780   70.3630    6.3320 C   0  0  0  0  0  0  0  0  0  0  0  0
   24.0860   71.2310   12.0970 C   0  0  0  0  0  0  0  0  0  0  0  0
   23.8970   72.0410    8.2700 C   0  0  0  0  0  0  0  0  0  0  0  0
   23.4020   70.6370    4.8100 C   0  0  0  0  0  0  0  0  0  0  0  0
   22.0880   72.2050   10.2090 C   0  0  0  0  0  0  0  0  0  0  0  0
   21.8590   72.0050   11.6800 C   0  0  0  0  0  0  0  0  0  0  0  0
   24.1030   71.3630    5.9120 C   0  0  1  0  0  0  0  0  0  0  0  0
   24.4170   71.3780   10.7550 C   0  0  0  0  0  0  0  0  0  0  0  0
   23.4300   71.8630    9.7160 C   0  0  0  0  0  0  0  0  0  0  0  0
   28.2390   73.8626    9.8522 H   0  0  0  0  0  0  0  0  0  0  0  0
   27.8027   70.1616    8.6085 H   0  0  0  0  0  0  0  0  0  0  0  0
   22.2401   72.0790    4.2653 H   0  0  0  0  0  0  0  0  0  0  0  0
   21.3905   72.7459    8.3675 H   0  0  0  0  0  0  0  0  0  0  0  0
   22.6541   72.4553    6.7704 H   0  0  0  0  0  0  0  0  0  0  0  0
   19.8909   72.6256   11.6207 H   0  0  0  0  0  0  0  0  0  0  0  0
   20.1680   71.4622   12.7326 H   0  0  0  0  0  0  0  0  0  0  0  0
   20.6434   72.9975   13.0215 H   0  0  0  0  0  0  0  0  0  0  0  0
   26.3411   70.7569   11.2073 H   0  0  0  0  0  0  0  0  0  0  0  0
   25.8238   70.2383    9.7478 H   0  0  0  0  0  0  0  0  0  0  0  0
   26.0872   70.6833    6.0659 H   0  0  0  0  0  0  0  0  0  0  0  0
   25.1551   70.2079    7.3196 H   0  0  0  0  0  0  0  0  0  0  0  0
   24.7651   70.8956   12.7499 H   0  0  0  0  0  0  0  0  0  0  0  0
   24.0638   73.0233    8.1843 H   0  0  0  0  0  0  0  0  0  0  0  0
   24.7674   71.5503    8.2302 H   0  0  0  0  0  0  0  0  0  0  0  0
   24.5284   72.1959    5.5581 H   0  0  0  0  0  0  0  0  0  0  0  0
  1  2  1  0  0  0  0
  1  3  1  0  0  0  0
  1  4  2  0  0  0  0
  1  7  1  0  0  0  0
  5 17  1  0  0  0  0
  6 18  1  0  0  0  0
  7 13  1  0  0  0  0
  8  9  1  0  0  0  0
  8 14  1  0  0  0  0
  9 17  2  0  0  0  0
 10 15  2  0  0  0  0
 10 19  1  0  0  0  0
 11 16  1  0  0  0  0
 11 20  1  0  0  0  0
 12 19  1  0  0  0  0
 13 21  1  0  0  0  0
 14 20  1  0  0  0  0
 15 21  1  0  0  0  0
 16 22  1  0  0  0  0
 17 20  1  0  0  0  0
 18 19  2  0  0  0  0
 18 22  1  0  0  0  0
 21 22  2  0  0  0  0
  2 23  1  0  0  0  0
  3 24  1  0  0  0  0
  5 25  1  0  0  0  0
  6 26  1  0  0  0  0
 11 27  1  0  0  0  0
 12 28  1  0  0  0  0
 12 29  1  0  0  0  0
 12 30  1  0  0  0  0
 13 31  1  0  0  0  0
 13 32  1  0  0  0  0
 14 33  1  0  0  0  0
 14 34  1  0  0  0  0
 15 35  1  0  0  0  0
 16 36  1  0  0  0  0
 16 37  1  0  0  0  0
 20 38  1  0  0  0  0
M  END
$$$$
BEN_D_401
  unicon  05052618033D 1   1.00000     0.00000     0
unicon 1.5.0   
 17 17  0  0  0  0            999 V2000
    0.8550   98.4270   -2.4750 N   0  0  0  0  0  0  0  0  0  0  0  0
   -1.0130   97.5950   -3.3550 N   0  0  0  0  0  0  0  0  0  0  0  0
   -2.4360   98.7480    1.4790 C   0  0  0  0  0  0  0  0  0  0  0  0
   -1.4040   99.5860    1.0660 C   0  0  0  0  0  0  0  0  0  0  0  0
   -2.7850   97.6850    0.6200 C   0  0  0  0  0  0  0  0  0  0  0  0
   -0.7420   99.3580   -0.1590 C   0  0  0  0  0  0  0  0  0  0  0  0
   -2.1290   97.4680   -0.6050 C   0  0  0  0  0  0  0  0  0  0  0  0
   -0.4180   98.1000   -2.2740 C   0  0  0  0  0  0  0  0  0  0  0  0
   -1.0880   98.3020   -1.0230 C   0  0  0  0  0  0  0  0  0  0  0  0
    1.3954   98.8151   -1.7285 H   0  0  0  0  0  0  0  0  0  0  0  0
    1.2720   98.2848   -3.3727 H   0  0  0  0  0  0  0  0  0  0  0  0
   -1.9723   97.3157   -3.3132 H   0  0  0  0  0  0  0  0  0  0  0  0
   -2.9097   98.8934    2.3476 H   0  0  0  0  0  0  0  0  0  0  0  0
   -1.1296  100.3559    1.6422 H   0  0  0  0  0  0  0  0  0  0  0  0
   -3.5223   97.0660    0.8906 H   0  0  0  0  0  0  0  0  0  0  0  0
    0.0025   99.9709   -0.4239 H   0  0  0  0  0  0  0  0  0  0  0  0
   -2.4118   96.7050   -1.1862 H   0  0  0  0  0  0  0  0  0  0  0  0
  1  8  1  0  0  0  0
  2  8  2  0  0  0  0
  3  4  2  0  0  0  0
  3  5  1  0  0  0  0
  4  6  1  0  0  0  0
  5  7  2  0  0  0  0
  6  9  2  0  0  0  0
  7  9  1  0  0  0  0
  8  9  1  0  0  0  0
  1 10  1  0  0  0  0
  1 11  1  0  0  0  0
  2 12  1  0  0  0  0
  3 13  1  0  0  0  0
  4 14  1  0  0  0  0
  5 15  1  0  0  0  0
  6 16  1  0  0  0  0
  7 17  1  0  0  0  0
M  END
$$$$
LCS_D_402
  unicon  05052618033D 1   1.00000     0.00000     0
unicon 1.5.0   
 38 39  0  0  0  0            999 V2000
   -4.1990   87.3500   23.5700 P   0  0  0  0  0  0  0  0  0  0  0  0
   -5.0760   88.4010   23.2940 O   0  0  0  0  0  0  0  0  0  0  0  0
   -4.6760   86.0590   23.4460 O   0  0  0  0  0  0  0  0  0  0  0  0
   -3.3690   87.5300   24.7200 O   0  0  0  0  0  0  0  0  0  0  0  0
   -4.5660   79.6780   23.6450 O   0  0  0  0  0  0  0  0  0  0  0  0
   -0.8180   82.5180   20.4500 O   0  0  0  0  0  0  0  0  0  0  0  0
   -3.3710   87.3390   22.3190 O   0  0  0  0  0  0  0  0  0  0  0  0
   -6.4000   82.3780   23.1650 O   0  0  0  0  0  0  0  0  0  0  0  0
   -6.1920   81.1190   23.0060 N   0  0  0  0  0  0  0  0  0  0  0  0
   -0.8670   85.7820   19.0590 N   0  0  0  0  0  0  0  0  0  0  0  0
   -3.0930   82.4700   22.5080 N   0  0  0  0  0  0  0  0  0  0  0  0
    0.6250   83.9830   18.5260 C   0  0  0  0  0  0  0  0  0  0  0  0
   -3.7310   86.6080   21.1980 C   0  0  0  0  0  0  0  0  0  0  0  0
   -5.2180   83.0960   22.9940 C   0  0  0  0  0  0  0  0  0  0  0  0
   -1.8680   86.3700   19.6500 C   0  0  0  0  0  0  0  0  0  0  0  0
   -3.2570   83.7900   22.0130 C   0  0  0  0  0  0  0  0  0  0  0  0
   -4.9430   80.8160   23.3320 C   0  0  0  0  0  0  0  0  0  0  0  0
   -1.2240   83.7470   20.2560 C   0  0  0  0  0  0  0  0  0  0  0  0
   -0.5100   84.5370   19.2740 C   0  0  0  0  0  0  0  0  0  0  0  0
   -4.1710   82.1110   23.3750 C   0  0  1  0  0  0  0  0  0  0  0  0
   -2.6260   85.7970   20.6000 C   0  0  0  0  0  0  0  0  0  0  0  0
   -2.3490   84.3950   20.9650 C   0  0  0  0  0  0  0  0  0  0  0  0
   -4.6028   89.2725   23.4227 H   0  0  0  0  0  0  0  0  0  0  0  0
   -3.9481   85.4116   23.6719 H   0  0  0  0  0  0  0  0  0  0  0  0
   -3.6078   79.5159   23.8807 H   0  0  0  0  0  0  0  0  0  0  0  0
   -1.2826   81.9376   21.1188 H   0  0  0  0  0  0  0  0  0  0  0  0
   -2.2330   82.4154   23.0154 H   0  0  0  0  0  0  0  0  0  0  0  0
    0.7719   83.0322   18.7989 H   0  0  0  0  0  0  0  0  0  0  0  0
    0.4294   84.0221   17.5461 H   0  0  0  0  0  0  0  0  0  0  0  0
    1.4470   84.5172   18.7234 H   0  0  0  0  0  0  0  0  0  0  0  0
   -4.0606   87.2464   20.5024 H   0  0  0  0  0  0  0  0  0  0  0  0
   -4.4699   85.9855   21.4560 H   0  0  0  0  0  0  0  0  0  0  0  0
   -5.1937   83.8964   23.5930 H   0  0  0  0  0  0  0  0  0  0  0  0
   -5.1087   83.3874   22.0437 H   0  0  0  0  0  0  0  0  0  0  0  0
   -2.0862   87.3076   19.3794 H   0  0  0  0  0  0  0  0  0  0  0  0
   -3.1985   84.3922   22.8092 H   0  0  0  0  0  0  0  0  0  0  0  0
   -4.1811   83.8290   21.6328 H   0  0  0  0  0  0  0  0  0  0  0  0
   -3.8943   82.2874   24.3196 H   0  0  0  0  0  0  0  0  0  0  0  0
  1  2  1  0  0  0  0
  1  3  1  0  0  0  0
  1  4  2  0  0  0  0
  1  7  1  0  0  0  0
  5 17  1  0  0  0  0
  6 18  1  0  0  0  0
  7 13  1  0  0  0  0
  8  9  1  0  0  0  0
  8 14  1  0  0  0  0
  9 17  2  0  0  0  0
 10 15  2  0  0  0  0
 10 19  1  0  0  0  0
 11 16  1  0  0  0  0
 11 20  1  0  0  0  0
 12 19  1  0  0  0  0
 13 21  1  0  0  0  0
 14 20  1  0  0  0  0
 15 21  1  0  0  0  0
 16 22  1  0  0  0  0
 17 20  1  0  0  0  0
 18 19  2  0  0  0  0
 18 22  1  0  0  0  0
 21 22  2  0  0  0  0
  2 23  1  0  0  0  0
  3 24  1  0  0  0  0
  5 25  1  0  0  0  0
  6 26  1  0  0  0  0
 11 27  1  0  0  0  0
 12 28  1  0  0  0  0
 12 29  1  0  0  0  0
 12 30  1  0  0  0  0
 13 31  1  0  0  0  0
 13 32  1  0  0  0  0
 14 33  1  0  0  0  0
 14 34  1  0  0  0  0
 15 35  1  0  0  0  0
 16 36  1  0  0  0  0
 16 37  1  0  0  0  0
 20 38  1  0  0  0  0
M  END
$$$$
