BEN_A_401
  unicon  05052618023D 1   1.00000     0.00000     0
unicon 1.5.0   
 17 17  0  0  0  0            999 V2000
  -22.3730   19.9970   29.9450 N   0  0  0  0  0  0  0  0  0  0  0  0
  -20.5020   19.5660   31.0960 N   0  0  0  0  0  0  0  0  0  0  0  0
  -19.0880   19.3360   26.1910 C   0  0  0  0  0  0  0  0  0  0  0  0
  -18.8830   18.3920   27.2000 C   0  0  0  0  0  0  0  0  0  0  0  0
  -19.9580   20.4080   26.4000 C   0  0  0  0  0  0  0  0  0  0  0  0
  -19.5470   18.5210   28.4200 C   0  0  0  0  0  0  0  0  0  0  0  0
  -20.6220   20.5340   27.6200 C   0  0  0  0  0  0  0  0  0  0  0  0
  -21.1420   19.7280   29.9390 C   0  0  0  0  0  0  0  0  0  0  0  0
  -20.4170   19.5910   28.6300 C   0  0  0  0  0  0  0  0  0  0  0  0
  -22.8620   20.1204   29.0815 H   0  0  0  0  0  0  0  0  0  0  0  0
  -22.8609   20.0871   30.8132 H   0  0  0  0  0  0  0  0  0  0  0  0
  -19.5251   19.3523   31.1014 H   0  0  0  0  0  0  0  0  0  0  0  0
  -18.6107   19.2439   25.3171 H   0  0  0  0  0  0  0  0  0  0  0  0
  -18.2606   17.6242   27.0479 H   0  0  0  0  0  0  0  0  0  0  0  0
  -20.1045   21.0833   25.6772 H   0  0  0  0  0  0  0  0  0  0  0  0
  -19.3994   17.8468   29.1436 H   0  0  0  0  0  0  0  0  0  0  0  0
  -21.2458   21.3006   27.7720 H   0  0  0  0  0  0  0  0  0  0  0  0
  1  8  1  0  0  0  0
  2  8  2  0  0  0  0
  3  4  2  0  0  0  0
  3  5  1  0  0  0  0
  4  6  1  0  0  0  0
  5  7  2  0  0  0  0
  6  9  2  0  0  0  0
  7  9  1  0  0  0  0
  8  9  1  0  0  0  0
  1 10  1  0  0  0  0
  1 11  1  0  0  0  0
  2 12  1  0  0  0  0
  3 13  1  0  0  0  0
  4 14  1  0  0  0  0
  5 15  1  0  0  0  0
  6 16  1  0  0  0  0
  7 17  1  0  0  0  0
M  END
$$$$
DCS_A_402
  unicon  05052618023D 1   1.00000     0.00000     0
unicon 1.5.0   
 38 39  0  0  0  0            999 V2000
   -0.4500   30.4780   13.2660 P   0  0  0  0  0  0  0  0  0  0  0  0
   -1.2830   29.5120   12.4660 O   0  0  0  0  0  0  0  0  0  0  0  0
    0.8290   29.9140   13.8330 O   0  0  0  0  0  0  0  0  0  0  0  0
   -0.2960   31.8420   12.6340 O   0  0  0  0  0  0  0  0  0  0  0  0
   -0.9900   37.2340   12.7450 O   0  0  0  0  0  0  0  0  0  0  0  0
   -1.5420   35.4800   18.1440 O   0  0  0  0  0  0  0  0  0  0  0  0
   -1.3370   30.7460   14.5770 O   0  0  0  0  0  0  0  0  0  0  0  0
   -3.0450   35.3220   10.8780 O   0  0  0  0  0  0  0  0  0  0  0  0
   -2.2750   36.3990   11.0640 N   0  0  0  0  0  0  0  0  0  0  0  0
   -2.8030   32.0170   18.2970 N   0  0  0  0  0  0  0  0  0  0  0  0
   -1.5280   34.5420   13.8900 N   0  0  0  0  0  0  0  0  0  0  0  0
   -2.5460   33.6270   20.1620 C   0  0  0  0  0  0  0  0  0  0  0  0
   -2.2460   31.8420   14.6040 C   0  0  0  0  0  0  0  0  0  0  0  0
   -3.2060   34.5470   12.0700 C   0  0  0  0  0  0  0  0  0  0  0  0
   -2.7270   31.6170   17.0180 C   0  0  0  0  0  0  0  0  0  0  0  0
   -1.2910   34.8520   15.2910 C   0  0  0  0  0  0  0  0  0  0  0  0
   -1.8090   36.4410   12.3070 C   0  0  0  0  0  0  0  0  0  0  0  0
   -1.9140   34.2400   17.7270 C   0  0  0  0  0  0  0  0  0  0  0  0
   -2.4320   33.2520   18.7080 C   0  0  0  0  0  0  0  0  0  0  0  0
   -2.4490   35.3580   13.1190 C   0  0  2  0  0  0  0  0  0  0  0  0
   -2.2630   32.4360   15.9910 C   0  0  0  0  0  0  0  0  0  0  0  0
   -1.8200   33.8350   16.2990 C   0  0  0  0  0  0  0  0  0  0  0  0
   -2.1047   29.9756   12.1344 H   0  0  0  0  0  0  0  0  0  0  0  0
    1.3095   30.6264   14.3446 H   0  0  0  0  0  0  0  0  0  0  0  0
   -0.7039   37.1801   13.7017 H   0  0  0  0  0  0  0  0  0  0  0  0
   -1.1932   36.1457   17.4843 H   0  0  0  0  0  0  0  0  0  0  0  0
   -1.8723   33.6038   13.8547 H   0  0  0  0  0  0  0  0  0  0  0  0
   -2.2317   34.5678   20.2892 H   0  0  0  0  0  0  0  0  0  0  0  0
   -3.5002   33.5523   20.4517 H   0  0  0  0  0  0  0  0  0  0  0  0
   -1.9818   33.0100   20.7106 H   0  0  0  0  0  0  0  0  0  0  0  0
   -3.1630   31.5223   14.3655 H   0  0  0  0  0  0  0  0  0  0  0  0
   -1.9533   32.5360   13.9462 H   0  0  0  0  0  0  0  0  0  0  0  0
   -2.8055   33.6370   11.9628 H   0  0  0  0  0  0  0  0  0  0  0  0
   -4.1721   34.4595   12.3130 H   0  0  0  0  0  0  0  0  0  0  0  0
   -3.0171   30.6872   16.7916 H   0  0  0  0  0  0  0  0  0  0  0  0
   -1.7242   35.7316   15.4875 H   0  0  0  0  0  0  0  0  0  0  0  0
   -0.3030   34.9299   15.4244 H   0  0  0  0  0  0  0  0  0  0  0  0
   -3.1107   35.7730   13.7434 H   0  0  0  0  0  0  0  0  0  0  0  0
  1  2  1  0  0  0  0
  1  3  1  0  0  0  0
  1  4  2  0  0  0  0
  1  7  1  0  0  0  0
  5 17  1  0  0  0  0
  6 18  1  0  0  0  0
  7 13  1  0  0  0  0
  8  9  1  0  0  0  0
  8 14  1  0  0  0  0
  9 17  2  0  0  0  0
 10 15  2  0  0  0  0
 10 19  1  0  0  0  0
 11 16  1  0  0  0  0
 11 20  1  0  0  0  0
 12 19  1  0  0  0  0
 13 21  1  0  0  0  0
 14 20  1  0  0  0  0
 15 21  1  0  0  0  0
 16 22  1  0  0  0  0
 17 20  1  0  0  0  0
 18 19  2  0  0  0  0
 18 22  1  0  0  0  0
 21 22  2  0  0  0  0
  2 23  1  0  0  0  0
  3 24  1  0  0  0  0
  5 25  1  0  0  0  0
  6 26  1  0  0  0  0
 11 27  1  0  0  0  0
 12 28  1  0  0  0  0
 12 29  1  0  0  0  0
 12 30  1  0  0  0  0
 13 31  1  0  0  0  0
 13 32  1  0  0  0  0
 14 33  1  0  0  0  0
 14 34  1  0  0  0  0
 15 35  1  0  0  0  0
 16 36  1  0  0  0  0
 16 37  1  0  0  0  0
 20 38  1  0  0  0  0
M  END
$$$$
BEN_B_401
  unicon  05052618023D 1   1.00000     0.00000     0
unicon 1.5.0   
 17 17  0  0  0  0            999 V2000
   24.3690   60.3830   35.1990 N   0  0  0  0  0  0  0  0  0  0  0  0
   24.6590   58.2470   34.5760 N   0  0  0  0  0  0  0  0  0  0  0  0
   20.1620   59.5130   32.5380 C   0  0  0  0  0  0  0  0  0  0  0  0
   20.2150   59.7190   33.9170 C   0  0  0  0  0  0  0  0  0  0  0  0
   21.3330   59.2600   31.8250 C   0  0  0  0  0  0  0  0  0  0  0  0
   21.4390   59.6730   34.5840 C   0  0  0  0  0  0  0  0  0  0  0  0
   22.5590   59.2130   32.4910 C   0  0  0  0  0  0  0  0  0  0  0  0
   23.9360   59.3680   34.5870 C   0  0  0  0  0  0  0  0  0  0  0  0
   22.6140   59.4200   33.8720 C   0  0  0  0  0  0  0  0  0  0  0  0
   23.8319   61.2264   35.2111 H   0  0  0  0  0  0  0  0  0  0  0  0
   25.2492   60.3439   35.6719 H   0  0  0  0  0  0  0  0  0  0  0  0
   24.3215   57.4391   34.0929 H   0  0  0  0  0  0  0  0  0  0  0  0
   19.2838   59.5468   32.0610 H   0  0  0  0  0  0  0  0  0  0  0  0
   19.3744   59.8998   34.4276 H   0  0  0  0  0  0  0  0  0  0  0  0
   21.2947   59.1122   30.8367 H   0  0  0  0  0  0  0  0  0  0  0  0
   21.4755   59.8212   35.5723 H   0  0  0  0  0  0  0  0  0  0  0  0
   23.3987   59.0310   31.9794 H   0  0  0  0  0  0  0  0  0  0  0  0
  1  8  1  0  0  0  0
  2  8  2  0  0  0  0
  3  4  2  0  0  0  0
  3  5  1  0  0  0  0
  4  6  1  0  0  0  0
  5  7  2  0  0  0  0
  6  9  2  0  0  0  0
  7  9  1  0  0  0  0
  8  9  1  0  0  0  0
  1 10  1  0  0  0  0
  1 11  1  0  0  0  0
  2 12  1  0  0  0  0
  3 13  1  0  0  0  0
  4 14  1  0  0  0  0
  5 15  1  0  0  0  0
  6 16  1  0  0  0  0
  7 17  1  0  0  0  0
M  END
$$$$
DCS_B_402
  unicon  05052618023D 1   1.00000     0.00000     0
unicon 1.5.0   
 38 39  0  0  0  0            999 V2000
    3.0890   45.6880   48.5570 P   0  0  0  0  0  0  0  0  0  0  0  0
    1.5770   45.6870   48.5330 O   0  0  0  0  0  0  0  0  0  0  0  0
    3.7000   44.3430   48.8710 O   0  0  0  0  0  0  0  0  0  0  0  0
    3.6830   46.8490   49.3180 O   0  0  0  0  0  0  0  0  0  0  0  0
   -2.8680   45.9250   46.8500 O   0  0  0  0  0  0  0  0  0  0  0  0
    0.0340   45.0160   42.5540 O   0  0  0  0  0  0  0  0  0  0  0  0
    3.5380   45.9320   47.0300 O   0  0  0  0  0  0  0  0  0  0  0  0
   -2.0370   48.9450   48.1120 O   0  0  0  0  0  0  0  0  0  0  0  0
   -2.8400   47.8760   48.0290 N   0  0  0  0  0  0  0  0  0  0  0  0
    3.4810   46.3430   42.6300 N   0  0  0  0  0  0  0  0  0  0  0  0
    0.0010   46.5870   46.5250 N   0  0  0  0  0  0  0  0  0  0  0  0
    2.2700   45.4380   40.6880 C   0  0  0  0  0  0  0  0  0  0  0  0
    2.9550   46.9890   46.2810 C   0  0  0  0  0  0  0  0  0  0  0  0
   -0.8160   48.7700   47.3930 C   0  0  0  0  0  0  0  0  0  0  0  0
    3.6350   46.6940   43.9170 C   0  0  0  0  0  0  0  0  0  0  0  0
    0.1270   45.6950   45.3870 C   0  0  0  0  0  0  0  0  0  0  0  0
   -2.3700   46.9990   47.1490 C   0  0  0  0  0  0  0  0  0  0  0  0
    1.1840   45.5630   43.0370 C   0  0  0  0  0  0  0  0  0  0  0  0
    2.3450   45.7990   42.1430 C   0  0  0  0  0  0  0  0  0  0  0  0
   -1.1030   47.5280   46.5520 C   0  0  2  0  0  0  0  0  0  0  0  0
    2.6350   46.5320   44.8770 C   0  0  0  0  0  0  0  0  0  0  0  0
    1.3150   45.9450   44.4690 C   0  0  0  0  0  0  0  0  0  0  0  0
    1.2464   46.6064   48.3198 H   0  0  0  0  0  0  0  0  0  0  0  0
    4.6969   44.4212   48.8693 H   0  0  0  0  0  0  0  0  0  0  0  0
   -2.4254   45.3407   46.1698 H   0  0  0  0  0  0  0  0  0  0  0  0
   -0.7417   44.8616   43.1659 H   0  0  0  0  0  0  0  0  0  0  0  0
    0.8448   47.1213   46.5754 H   0  0  0  0  0  0  0  0  0  0  0  0
    1.3708   45.0495   40.4869 H   0  0  0  0  0  0  0  0  0  0  0  0
    2.4104   46.2582   40.1334 H   0  0  0  0  0  0  0  0  0  0  0  0
    2.9789   44.7658   40.4744 H   0  0  0  0  0  0  0  0  0  0  0  0
    3.5966   47.7549   46.2391 H   0  0  0  0  0  0  0  0  0  0  0  0
    2.1121   47.2844   46.7306 H   0  0  0  0  0  0  0  0  0  0  0  0
   -0.0489   48.6155   48.0156 H   0  0  0  0  0  0  0  0  0  0  0  0
   -0.6210   49.5615   46.8138 H   0  0  0  0  0  0  0  0  0  0  0  0
    4.5080   47.0904   44.2012 H   0  0  0  0  0  0  0  0  0  0  0  0
   -0.7054   45.7790   44.8393 H   0  0  0  0  0  0  0  0  0  0  0  0
    0.2027   44.7615   45.7374 H   0  0  0  0  0  0  0  0  0  0  0  0
   -1.2931   47.8187   45.6143 H   0  0  0  0  0  0  0  0  0  0  0  0
  1  2  1  0  0  0  0
  1  3  1  0  0  0  0
  1  4  2  0  0  0  0
  1  7  1  0  0  0  0
  5 17  1  0  0  0  0
  6 18  1  0  0  0  0
  7 13  1  0  0  0  0
  8  9  1  0  0  0  0
  8 14  1  0  0  0  0
  9 17  2  0  0  0  0
 10 15  2  0  0  0  0
 10 19  1  0  0  0  0
 11 16  1  0  0  0  0
 11 20  1  0  0  0  0
 12 19  1  0  0  0  0
 13 21  1  0  0  0  0
 14 20  1  0  0  0  0
 15 21  1  0  0  0  0
 16 22  1  0  0  0  0
 17 20  1  0  0  0  0
 18 19  2  0  0  0  0
 18 22  1  0  0  0  0
 21 22  2  0  0  0  0
  2 23  1  0  0  0  0
  3 24  1  0  0  0  0
  5 25  1  0  0  0  0
  6 26  1  0  0  0  0
 11 27  1  0  0  0  0
 12 28  1  0  0  0  0
 12 29  1  0  0  0  0
 12 30  1  0  0  0  0
 13 31  1  0  0  0  0
 13 32  1  0  0  0  0
 14 33  1  0  0  0  0
 14 34  1  0  0  0  0
 15 35  1  0  0  0  0
 16 36  1  0  0  0  0
 16 37  1  0  0  0  0
 20 38  1  0  0  0  0
M  END
$$$$
DCS_C_401
  unicon  05052618023D 1   1.00000     0.00000     0
unicon 1.5.0   
 38 39  0  0  0  0            999 V2000
   26.8020   73.0630    9.7400 P   0  0  0  0  0  0  0  0  0  0  0  0
   26.2960   72.5980    8.3930 O   0  0  0  0  0  0  0  0  0  0  0  0
   27.1780   74.5220    9.7740 O   0  0  0  0  0  0  0  0  0  0  0  0
   27.8090   72.1430   10.3960 O   0  0  0  0  0  0  0  0  0  0  0  0
   22.4260   72.9020    5.2880 O   0  0  0  0  0  0  0  0  0  0  0  0
   19.9560   73.5750    9.7900 O   0  0  0  0  0  0  0  0  0  0  0  0
   25.5220   72.9830   10.7140 O   0  0  0  0  0  0  0  0  0  0  0  0
   24.4180   70.1600    5.3440 O   0  0  0  0  0  0  0  0  0  0  0  0
   23.6850   71.1090    4.6750 N   0  0  0  0  0  0  0  0  0  0  0  0
   21.6600   72.3930   12.8500 N   0  0  0  0  0  0  0  0  0  0  0  0
   23.4490   72.0130    7.9750 N   0  0  0  0  0  0  0  0  0  0  0  0
   19.3340   73.1980   12.6470 C   0  0  0  0  0  0  0  0  0  0  0  0
   24.6860   71.8310   10.7130 C   0  0  0  0  0  0  0  0  0  0  0  0
   23.8590   69.9520    6.6780 C   0  0  0  0  0  0  0  0  0  0  0  0
   22.8880   72.0810   12.4040 C   0  0  0  0  0  0  0  0  0  0  0  0
   22.5460   72.9680    8.5960 C   0  0  0  0  0  0  0  0  0  0  0  0
   22.9930   71.8470    5.5350 C   0  0  0  0  0  0  0  0  0  0  0  0
   20.9320   73.0890   10.6070 C   0  0  0  0  0  0  0  0  0  0  0  0
   20.6790   72.8800   12.0550 C   0  0  0  0  0  0  0  0  0  0  0  0
   22.9790   71.1850    6.8790 C   0  0  2  0  0  0  0  0  0  0  0  0
   23.2730   72.2270   11.0720 C   0  0  0  0  0  0  0  0  0  0  0  0
   22.2800   72.7500   10.0770 C   0  0  0  0  0  0  0  0  0  0  0  0
   26.0659   71.6260    8.4408 H   0  0  0  0  0  0  0  0  0  0  0  0
   27.5025   74.7613   10.6891 H   0  0  0  0  0  0  0  0  0  0  0  0
   21.9287   73.3833    6.0098 H   0  0  0  0  0  0  0  0  0  0  0  0
   20.1405   73.7108    8.8166 H   0  0  0  0  0  0  0  0  0  0  0  0
   23.7552   71.3921    8.6966 H   0  0  0  0  0  0  0  0  0  0  0  0
   18.7284   73.5454   11.9311 H   0  0  0  0  0  0  0  0  0  0  0  0
   18.9399   72.3689   13.0436 H   0  0  0  0  0  0  0  0  0  0  0  0
   19.4391   73.8912   13.3601 H   0  0  0  0  0  0  0  0  0  0  0  0
   25.0271   71.1722   11.3835 H   0  0  0  0  0  0  0  0  0  0  0  0
   24.6938   71.4154    9.8035 H   0  0  0  0  0  0  0  0  0  0  0  0
   24.5817   69.9101    7.3679 H   0  0  0  0  0  0  0  0  0  0  0  0
   23.3157   69.1132    6.7131 H   0  0  0  0  0  0  0  0  0  0  0  0
   23.5571   71.7276   13.0577 H   0  0  0  0  0  0  0  0  0  0  0  0
   21.6702   72.9212    8.1156 H   0  0  0  0  0  0  0  0  0  0  0  0
   22.9389   73.8808    8.4847 H   0  0  0  0  0  0  0  0  0  0  0  0
   22.0464   70.8850    7.0798 H   0  0  0  0  0  0  0  0  0  0  0  0
  1  2  1  0  0  0  0
  1  3  1  0  0  0  0
  1  4  2  0  0  0  0
  1  7  1  0  0  0  0
  5 17  1  0  0  0  0
  6 18  1  0  0  0  0
  7 13  1  0  0  0  0
  8  9  1  0  0  0  0
  8 14  1  0  0  0  0
  9 17  2  0  0  0  0
 10 15  2  0  0  0  0
 10 19  1  0  0  0  0
 11 16  1  0  0  0  0
 11 20  1  0  0  0  0
 12 19  1  0  0  0  0
 13 21  1  0  0  0  0
 14 20  1  0  0  0  0
 15 21  1  0  0  0  0
 16 22  1  0  0  0  0
 17 20  1  0  0  0  0
 18 19  2  0  0  0  0
 18 22  1  0  0  0  0
 21 22  2  0  0  0  0
  2 23  1  0  0  0  0
  3 24  1  0  0  0  0
  5 25  1  0  0  0  0
  6 26  1  0  0  0  0
 11 27  1  0  0  0  0
 12 28  1  0  0  0  0
 12 29  1  0  0  0  0
 12 30  1  0  0  0  0
 13 31  1  0  0  0  0
 13 32  1  0  0  0  0
 14 33  1  0  0  0  0
 14 34  1  0  0  0  0
 15 35  1  0  0  0  0
 16 36  1  0  0  0  0
 16 37  1  0  0  0  0
 20 38  1  0  0  0  0
M  END
$$$$
BEN_D_401
  unicon  05052618023D 1   1.00000     0.00000     0
unicon 1.5.0   
 17 17  0  0  0  0            999 V2000
    0.2370   99.1590   -3.4500 N   0  0  0  0  0  0  0  0  0  0  0  0
   -1.6280   98.4950   -4.4800 N   0  0  0  0  0  0  0  0  0  0  0  0
   -3.1980   99.6210    0.2430 C   0  0  0  0  0  0  0  0  0  0  0  0
   -2.1730  100.4920   -0.1280 C   0  0  0  0  0  0  0  0  0  0  0  0
   -3.5100   98.5250   -0.5650 C   0  0  0  0  0  0  0  0  0  0  0  0
   -1.4590  100.2690   -1.3070 C   0  0  0  0  0  0  0  0  0  0  0  0
   -2.7940   98.3040   -1.7430 C   0  0  0  0  0  0  0  0  0  0  0  0
   -1.0010   98.9380   -3.3930 C   0  0  0  0  0  0  0  0  0  0  0  0
   -1.7670   99.1750   -2.1190 C   0  0  0  0  0  0  0  0  0  0  0  0
    0.7232   99.4921   -2.6421 H   0  0  0  0  0  0  0  0  0  0  0  0
    0.7343   99.0014   -4.3032 H   0  0  0  0  0  0  0  0  0  0  0  0
   -2.6112   98.3145   -4.4515 H   0  0  0  0  0  0  0  0  0  0  0  0
   -3.7093   99.7813    1.0873 H   0  0  0  0  0  0  0  0  0  0  0  0
   -1.9497  101.2763    0.4508 H   0  0  0  0  0  0  0  0  0  0  0  0
   -4.2445   97.9002   -0.3003 H   0  0  0  0  0  0  0  0  0  0  0  0
   -0.7248  100.8945   -1.5709 H   0  0  0  0  0  0  0  0  0  0  0  0
   -3.0168   97.5188   -2.3207 H   0  0  0  0  0  0  0  0  0  0  0  0
  1  8  1  0  0  0  0
  2  8  2  0  0  0  0
  3  4  2  0  0  0  0
  3  5  1  0  0  0  0
  4  6  1  0  0  0  0
  5  7  2  0  0  0  0
  6  9  2  0  0  0  0
  7  9  1  0  0  0  0
  8  9  1  0  0  0  0
  1 10  1  0  0  0  0
  1 11  1  0  0  0  0
  2 12  1  0  0  0  0
  3 13  1  0  0  0  0
  4 14  1  0  0  0  0
  5 15  1  0  0  0  0
  6 16  1  0  0  0  0
  7 17  1  0  0  0  0
M  END
$$$$
DCS_D_402
  unicon  05052618023D 1   1.00000     0.00000     0
unicon 1.5.0   
 38 39  0  0  0  0            999 V2000
   -6.1840   88.2120   22.9740 P   0  0  0  0  0  0  0  0  0  0  0  0
   -6.4740   86.7580   23.2610 O   0  0  0  0  0  0  0  0  0  0  0  0
   -5.2580   88.8620   23.9670 O   0  0  0  0  0  0  0  0  0  0  0  0
   -7.3920   89.0410   22.6120 O   0  0  0  0  0  0  0  0  0  0  0  0
   -6.6930   81.9880   22.8770 O   0  0  0  0  0  0  0  0  0  0  0  0
   -2.6830   83.4270   19.7080 O   0  0  0  0  0  0  0  0  0  0  0  0
   -5.3360   88.1780   21.6130 O   0  0  0  0  0  0  0  0  0  0  0  0
   -9.5910   83.4260   21.9300 O   0  0  0  0  0  0  0  0  0  0  0  0
   -8.8910   82.4730   22.5730 N   0  0  0  0  0  0  0  0  0  0  0  0
   -2.8860   86.8220   18.2670 N   0  0  0  0  0  0  0  0  0  0  0  0
   -6.3960   84.6200   21.4710 N   0  0  0  0  0  0  0  0  0  0  0  0
   -1.2620   85.0440   17.7030 C   0  0  0  0  0  0  0  0  0  0  0  0
   -5.8130   87.3920   20.5240 C   0  0  0  0  0  0  0  0  0  0  0  0
   -8.7820   84.1500   20.9890 C   0  0  0  0  0  0  0  0  0  0  0  0
   -3.9310   87.3520   18.9230 C   0  0  0  0  0  0  0  0  0  0  0  0
   -4.9790   84.3570   21.2520 C   0  0  0  0  0  0  0  0  0  0  0  0
   -7.5930   82.5930   22.3190 C   0  0  0  0  0  0  0  0  0  0  0  0
   -3.1210   84.6960   19.4850 C   0  0  0  0  0  0  0  0  0  0  0  0
   -2.4410   85.5620   18.4850 C   0  0  0  0  0  0  0  0  0  0  0  0
   -7.3820   83.5820   21.2120 C   0  0  2  0  0  0  0  0  0  0  0  0
   -4.6620   86.6570   19.8850 C   0  0  0  0  0  0  0  0  0  0  0  0
   -4.2860   85.2470   20.2250 C   0  0  0  0  0  0  0  0  0  0  0  0
   -7.0924   86.3973   22.5628 H   0  0  0  0  0  0  0  0  0  0  0  0
   -5.1142   89.8182   23.7122 H   0  0  0  0  0  0  0  0  0  0  0  0
   -5.7424   82.1498   22.6121 H   0  0  0  0  0  0  0  0  0  0  0  0
   -3.1446   82.8499   20.3817 H   0  0  0  0  0  0  0  0  0  0  0  0
   -6.6374   85.3975   20.8903 H   0  0  0  0  0  0  0  0  0  0  0  0
   -1.0636   84.1045   17.9823 H   0  0  0  0  0  0  0  0  0  0  0  0
   -1.4754   85.0634   16.7262 H   0  0  0  0  0  0  0  0  0  0  0  0
   -0.4645   85.6203   17.8815 H   0  0  0  0  0  0  0  0  0  0  0  0
   -6.2433   87.9888   19.8467 H   0  0  0  0  0  0  0  0  0  0  0  0
   -6.4840   86.7310   20.8600 H   0  0  0  0  0  0  0  0  0  0  0  0
   -8.8041   85.1315   21.1793 H   0  0  0  0  0  0  0  0  0  0  0  0
   -9.0896   83.9851   20.0519 H   0  0  0  0  0  0  0  0  0  0  0  0
   -4.1980   88.2920   18.7108 H   0  0  0  0  0  0  0  0  0  0  0  0
   -4.8870   83.4090   20.9473 H   0  0  0  0  0  0  0  0  0  0  0  0
   -4.5073   84.4735   22.1260 H   0  0  0  0  0  0  0  0  0  0  0  0
   -7.1080   83.0832   20.3897 H   0  0  0  0  0  0  0  0  0  0  0  0
  1  2  1  0  0  0  0
  1  3  1  0  0  0  0
  1  4  2  0  0  0  0
  1  7  1  0  0  0  0
  5 17  1  0  0  0  0
  6 18  1  0  0  0  0
  7 13  1  0  0  0  0
  8  9  1  0  0  0  0
  8 14  1  0  0  0  0
  9 17  2  0  0  0  0
 10 15  2  0  0  0  0
 10 19  1  0  0  0  0
 11 16  1  0  0  0  0
 11 20  1  0  0  0  0
 12 19  1  0  0  0  0
 13 21  1  0  0  0  0
 14 20  1  0  0  0  0
 15 21  1  0  0  0  0
 16 22  1  0  0  0  0
 17 20  1  0  0  0  0
 18 19  2  0  0  0  0
 18 22  1  0  0  0  0
 21 22  2  0  0  0  0
  2 23  1  0  0  0  0
  3 24  1  0  0  0  0
  5 25  1  0  0  0  0
  6 26  1  0  0  0  0
 11 27  1  0  0  0  0
 12 28  1  0  0  0  0
 12 29  1  0  0  0  0
 12 30  1  0  0  0  0
 13 31  1  0  0  0  0
 13 32  1  0  0  0  0
 14 33  1  0  0  0  0
 14 34  1  0  0  0  0
 15 35  1  0  0  0  0
 16 36  1  0  0  0  0
 16 37  1  0  0  0  0
 20 38  1  0  0  0  0
M  END
$$$$
