52J_A_201
  unicon  05052617393D 1   1.00000     0.00000     0
unicon 1.5.0   
 71 74  0  0  0  0            999 V2000
   22.6790  -28.1570   -0.8110 O   0  0  0  0  0  0  0  0  0  0  0  0
   15.7490  -25.6850   -1.1690 O   0  0  0  0  0  0  0  0  0  0  0  0
   18.2970  -26.2730   -0.2290 O   0  0  0  0  0  0  0  0  0  0  0  0
   16.2620  -35.0790   -3.2800 N   0  0  0  0  0  0  0  0  0  0  0  0
   15.2950  -31.4430   -6.4220 N   0  0  0  0  0  0  0  0  0  0  0  0
   22.7540  -30.7600   -3.1300 N   0  0  0  0  0  0  0  0  0  0  0  0
   16.4490  -32.8000   -2.5370 N   0  0  0  0  0  0  0  0  0  0  0  0
   15.7970  -33.2330   -4.7880 N   0  0  0  0  0  0  0  0  0  0  0  0
   23.1740  -29.8990   -2.1840 N   0  0  0  0  0  0  0  0  0  0  0  0
   14.3230  -25.6180   -1.3360 C   0  0  0  0  0  0  0  0  0  0  0  0
   18.4240  -26.7910    1.0960 C   0  0  0  0  0  0  0  0  0  0  0  0
   26.0720  -30.3060    1.2180 C   0  0  0  0  0  0  0  0  0  0  0  0
   26.3490  -32.7890    0.4760 C   0  0  0  0  0  0  0  0  0  0  0  0
   23.5440  -30.7190   -4.3280 C   0  0  0  0  0  0  0  0  0  0  0  0
   16.3700  -31.4550   -2.7470 C   0  0  0  0  0  0  0  0  0  0  0  0
   27.2890  -30.5420   -4.9800 C   0  0  0  0  0  0  0  0  0  0  0  0
   27.7630  -30.1920   -3.7400 C   0  0  0  0  0  0  0  0  0  0  0  0
   20.8800  -28.8180   -2.1310 C   0  0  0  0  0  0  0  0  0  0  0  0
   25.9030  -30.7170   -5.1780 C   0  0  0  0  0  0  0  0  0  0  0  0
   26.8500  -30.0050   -2.6510 C   0  0  0  0  0  0  0  0  0  0  0  0
   19.8500  -28.4900   -1.2310 C   0  0  0  0  0  0  0  0  0  0  0  0
   15.8450  -27.5350   -2.6840 C   0  0  0  0  0  0  0  0  0  0  0  0
   24.6470  -31.1550   -0.7480 C   0  0  0  0  0  0  0  0  0  0  0  0
   15.8760  -29.5210   -4.3530 C   0  0  0  0  0  0  0  0  0  0  0  0
   17.8140  -28.9600   -2.7800 C   0  0  0  0  0  0  0  0  0  0  0  0
   16.1700  -33.6630   -3.5300 C   0  0  0  0  0  0  0  0  0  0  0  0
   22.2880  -28.9090   -1.6470 C   0  0  0  0  0  0  0  0  0  0  0  0
   15.7020  -31.9100   -5.0520 C   0  0  0  0  0  0  0  0  0  0  0  0
   16.4330  -26.7480   -1.6850 C   0  0  0  0  0  0  0  0  0  0  0  0
   17.7190  -27.0530   -1.2170 C   0  0  0  0  0  0  0  0  0  0  0  0
   25.9790  -31.2800    0.0740 C   0  0  0  0  0  0  0  0  0  0  0  0
   24.5240  -29.9840   -1.7210 C   0  0  1  0  0  0  0  0  0  0  0  0
   16.5530  -28.6570   -3.2320 C   0  0  0  0  0  0  0  0  0  0  0  0
   15.9830  -30.9750   -4.0540 C   0  0  0  0  0  0  0  0  0  0  0  0
   25.0010  -30.5310   -4.0970 C   0  0  0  0  0  0  0  0  0  0  0  0
   18.4210  -28.1520   -1.7530 C   0  0  0  0  0  0  0  0  0  0  0  0
   25.4770  -30.1780   -2.8510 C   0  0  0  0  0  0  0  0  0  0  0  0
   16.0569  -35.7301   -4.0107 H   0  0  0  0  0  0  0  0  0  0  0  0
   16.5310  -35.4106   -2.3757 H   0  0  0  0  0  0  0  0  0  0  0  0
   15.2250  -30.4646   -6.6164 H   0  0  0  0  0  0  0  0  0  0  0  0
   15.0943  -32.1108   -7.1388 H   0  0  0  0  0  0  0  0  0  0  0  0
   21.8084  -30.5357   -3.3658 H   0  0  0  0  0  0  0  0  0  0  0  0
   13.9756  -24.7854   -0.9046 H   0  0  0  0  0  0  0  0  0  0  0  0
   14.1018  -25.6054   -2.3112 H   0  0  0  0  0  0  0  0  0  0  0  0
   13.8994  -26.4166   -0.9084 H   0  0  0  0  0  0  0  0  0  0  0  0
   18.8586  -26.1065    1.6813 H   0  0  0  0  0  0  0  0  0  0  0  0
   17.5174  -27.0105    1.4564 H   0  0  0  0  0  0  0  0  0  0  0  0
   18.9849  -27.6187    1.0780 H   0  0  0  0  0  0  0  0  0  0  0  0
   25.8293  -29.3906    0.8970 H   0  0  0  0  0  0  0  0  0  0  0  0
   25.4419  -30.5828    1.9435 H   0  0  0  0  0  0  0  0  0  0  0  0
   27.0066  -30.2976    1.5735 H   0  0  0  0  0  0  0  0  0  0  0  0
   26.2662  -33.3780   -0.3279 H   0  0  0  0  0  0  0  0  0  0  0  0
   27.2880  -32.8221    0.8182 H   0  0  0  0  0  0  0  0  0  0  0  0
   25.7233  -33.1072    1.1882 H   0  0  0  0  0  0  0  0  0  0  0  0
   23.2166  -29.9615   -4.8928 H   0  0  0  0  0  0  0  0  0  0  0  0
   23.4137  -31.5808   -4.8182 H   0  0  0  0  0  0  0  0  0  0  0  0
   16.5763  -30.8120   -2.0094 H   0  0  0  0  0  0  0  0  0  0  0  0
   27.9245  -30.6726   -5.7410 H   0  0  0  0  0  0  0  0  0  0  0  0
   28.7448  -30.0676   -3.5966 H   0  0  0  0  0  0  0  0  0  0  0  0
   20.6688  -28.9898   -3.0932 H   0  0  0  0  0  0  0  0  0  0  0  0
   25.5556  -30.9722   -6.0803 H   0  0  0  0  0  0  0  0  0  0  0  0
   27.1952  -29.7506   -1.7476 H   0  0  0  0  0  0  0  0  0  0  0  0
   20.0361  -28.4736   -0.2486 H   0  0  0  0  0  0  0  0  0  0  0  0
   14.9282  -27.3141   -3.0167 H   0  0  0  0  0  0  0  0  0  0  0  0
   23.8964  -31.0788   -0.0917 H   0  0  0  0  0  0  0  0  0  0  0  0
   24.5423  -31.9966   -1.2779 H   0  0  0  0  0  0  0  0  0  0  0  0
   16.3272  -29.3338   -5.2256 H   0  0  0  0  0  0  0  0  0  0  0  0
   14.9096  -29.2719   -4.4172 H   0  0  0  0  0  0  0  0  0  0  0  0
   18.3097  -29.7396   -3.1628 H   0  0  0  0  0  0  0  0  0  0  0  0
   26.6992  -30.9997   -0.5606 H   0  0  0  0  0  0  0  0  0  0  0  0
   24.7567  -29.1378   -1.2417 H   0  0  0  0  0  0  0  0  0  0  0  0
  1 27  2  0  0  0  0
  2 10  1  0  0  0  0
  2 29  1  0  0  0  0
  3 11  1  0  0  0  0
  3 30  1  0  0  0  0
  4 26  1  0  0  0  0
  5 28  1  0  0  0  0
  6  9  1  0  0  0  0
  6 14  1  0  0  0  0
  7 15  1  0  0  0  0
  7 26  2  0  0  0  0
  8 26  1  0  0  0  0
  8 28  2  0  0  0  0
  9 27  1  0  0  0  0
  9 32  1  0  0  0  0
 12 31  1  0  0  0  0
 13 31  1  0  0  0  0
 14 35  1  0  0  0  0
 15 34  2  0  0  0  0
 16 17  2  0  0  0  0
 16 19  1  0  0  0  0
 17 20  1  0  0  0  0
 18 21  2  0  0  0  0
 18 27  1  0  0  0  0
 19 35  2  0  0  0  0
 20 37  2  0  0  0  0
 21 36  1  0  0  0  0
 22 29  2  0  0  0  0
 22 33  1  0  0  0  0
 23 31  1  0  0  0  0
 23 32  1  0  0  0  0
 24 33  1  0  0  0  0
 24 34  1  0  0  0  0
 25 33  2  0  0  0  0
 25 36  1  0  0  0  0
 28 34  1  0  0  0  0
 29 30  1  0  0  0  0
 30 36  2  0  0  0  0
 32 37  1  0  0  0  0
 35 37  1  0  0  0  0
  4 38  1  0  0  0  0
  4 39  1  0  0  0  0
  5 40  1  0  0  0  0
  5 41  1  0  0  0  0
  6 42  1  0  0  0  0
 10 43  1  0  0  0  0
 10 44  1  0  0  0  0
 10 45  1  0  0  0  0
 11 46  1  0  0  0  0
 11 47  1  0  0  0  0
 11 48  1  0  0  0  0
 12 49  1  0  0  0  0
 12 50  1  0  0  0  0
 12 51  1  0  0  0  0
 13 52  1  0  0  0  0
 13 53  1  0  0  0  0
 13 54  1  0  0  0  0
 14 55  1  0  0  0  0
 14 56  1  0  0  0  0
 15 57  1  0  0  0  0
 16 58  1  0  0  0  0
 17 59  1  0  0  0  0
 18 60  1  0  0  0  0
 19 61  1  0  0  0  0
 20 62  1  0  0  0  0
 21 63  1  0  0  0  0
 22 64  1  0  0  0  0
 23 65  1  0  0  0  0
 23 66  1  0  0  0  0
 24 67  1  0  0  0  0
 24 68  1  0  0  0  0
 25 69  1  0  0  0  0
 31 70  1  0  0  0  0
 32 71  1  0  0  0  0
M  END
$$$$
CL_A_203
  unicon  05052617393D 1   1.00000     0.00000     0
unicon 1.5.0   
  1  0  0  0  0  0            999 V2000
   11.8630  -22.7020   -9.5950 Cl  0  5  0  0  0  0  0  0  0  0  0  0
M  CHG  1   1  -1
M  END
$$$$
52J_B_201
  unicon  05052617393D 1   1.00000     0.00000     0
unicon 1.5.0   
 71 74  0  0  0  0            999 V2000
   19.2600   -6.5410    0.1650 O   0  0  0  0  0  0  0  0  0  0  0  0
   11.9990   -8.2980    0.4110 O   0  0  0  0  0  0  0  0  0  0  0  0
   14.7310   -8.3860   -0.0880 O   0  0  0  0  0  0  0  0  0  0  0  0
   13.0650    0.5760    2.6470 N   0  0  0  0  0  0  0  0  0  0  0  0
   11.9480   -2.8740    5.9450 N   0  0  0  0  0  0  0  0  0  0  0  0
   19.3150   -3.9040    2.4420 N   0  0  0  0  0  0  0  0  0  0  0  0
   13.2860   -1.7410    2.0470 N   0  0  0  0  0  0  0  0  0  0  0  0
   12.5270   -1.1800    4.2360 N   0  0  0  0  0  0  0  0  0  0  0  0
   19.7620   -4.8380    1.5800 N   0  0  0  0  0  0  0  0  0  0  0  0
   10.6660   -8.5340    0.8980 C   0  0  0  0  0  0  0  0  0  0  0  0
   16.0900   -8.2350   -0.5010 C   0  0  0  0  0  0  0  0  0  0  0  0
   21.5310   -5.9730   -1.4370 C   0  0  0  0  0  0  0  0  0  0  0  0
   22.1280   -3.6150   -2.3730 C   0  0  0  0  0  0  0  0  0  0  0  0
   19.9220   -3.9980    3.7380 C   0  0  0  0  0  0  0  0  0  0  0  0
   13.1960   -3.0720    2.3310 C   0  0  0  0  0  0  0  0  0  0  0  0
   23.5720   -4.1200    4.8080 C   0  0  0  0  0  0  0  0  0  0  0  0
   24.1720   -4.5720    3.6590 C   0  0  0  0  0  0  0  0  0  0  0  0
   17.3800   -5.6210    1.1840 C   0  0  0  0  0  0  0  0  0  0  0  0
   22.1750   -3.9290    4.8410 C   0  0  0  0  0  0  0  0  0  0  0  0
   23.3780   -4.8480    2.4970 C   0  0  0  0  0  0  0  0  0  0  0  0
   16.6310   -6.7970    1.3710 C   0  0  0  0  0  0  0  0  0  0  0  0
   12.3330   -6.6730    2.1360 C   0  0  0  0  0  0  0  0  0  0  0  0
   21.5530   -3.9880    0.1970 C   0  0  0  0  0  0  0  0  0  0  0  0
   12.6260   -4.9110    4.0200 C   0  0  0  0  0  0  0  0  0  0  0  0
   14.5710   -5.8800    2.6730 C   0  0  0  0  0  0  0  0  0  0  0  0
   12.9610   -0.8230    2.9750 C   0  0  0  0  0  0  0  0  0  0  0  0
   18.8460   -5.7210    0.9230 C   0  0  0  0  0  0  0  0  0  0  0  0
   12.4190   -2.4850    4.5720 C   0  0  0  0  0  0  0  0  0  0  0  0
   12.8460   -7.5150    1.1410 C   0  0  0  0  0  0  0  0  0  0  0  0
   14.2250   -7.5540    0.8960 C   0  0  0  0  0  0  0  0  0  0  0  0
   22.1180   -4.6220   -1.1240 C   0  0  0  0  0  0  0  0  0  0  0  0
   21.1660   -4.9430    1.3240 C   0  0  1  0  0  0  0  0  0  0  0  0
   13.2170   -5.8440    2.9060 C   0  0  0  0  0  0  0  0  0  0  0  0
   12.7470   -3.4760    3.6440 C   0  0  0  0  0  0  0  0  0  0  0  0
   21.3920   -4.2030    3.6890 C   0  0  0  0  0  0  0  0  0  0  0  0
   15.0980   -6.7440    1.6490 C   0  0  0  0  0  0  0  0  0  0  0  0
   21.9930   -4.6570    2.5330 C   0  0  0  0  0  0  0  0  0  0  0  0
   12.8264    1.2683    3.3280 H   0  0  0  0  0  0  0  0  0  0  0  0
   13.3758    0.8548    1.7383 H   0  0  0  0  0  0  0  0  0  0  0  0
   11.8688   -3.8399    6.1914 H   0  0  0  0  0  0  0  0  0  0  0  0
   11.7137   -2.1669    6.6122 H   0  0  0  0  0  0  0  0  0  0  0  0
   18.3263   -4.0131    2.5450 H   0  0  0  0  0  0  0  0  0  0  0  0
   10.1753   -9.1218    0.2548 H   0  0  0  0  0  0  0  0  0  0  0  0
   10.7118   -8.9821    1.7908 H   0  0  0  0  0  0  0  0  0  0  0  0
   10.1844   -7.6621    0.9869 H   0  0  0  0  0  0  0  0  0  0  0  0
   16.2985   -8.9056   -1.2129 H   0  0  0  0  0  0  0  0  0  0  0  0
   16.2284   -7.3125   -0.8613 H   0  0  0  0  0  0  0  0  0  0  0  0
   16.6946   -8.3812    0.2820 H   0  0  0  0  0  0  0  0  0  0  0  0
   21.5568   -6.5456   -0.6176 H   0  0  0  0  0  0  0  0  0  0  0  0
   20.5835   -5.8633   -1.7373 H   0  0  0  0  0  0  0  0  0  0  0  0
   22.0629   -6.4072   -2.1640 H   0  0  0  0  0  0  0  0  0  0  0  0
   22.5292   -2.7424   -2.0944 H   0  0  0  0  0  0  0  0  0  0  0  0
   22.6702   -4.0095   -3.1149 H   0  0  0  0  0  0  0  0  0  0  0  0
   21.1908   -3.4655   -2.6882 H   0  0  0  0  0  0  0  0  0  0  0  0
   19.5108   -4.7685    4.2252 H   0  0  0  0  0  0  0  0  0  0  0  0
   19.7368   -3.1512    4.2367 H   0  0  0  0  0  0  0  0  0  0  0  0
   13.4365   -3.7564    1.6427 H   0  0  0  0  0  0  0  0  0  0  0  0
   24.1238   -3.9267    5.6192 H   0  0  0  0  0  0  0  0  0  0  0  0
   25.1622   -4.7088    3.6322 H   0  0  0  0  0  0  0  0  0  0  0  0
   16.9345   -4.7267    1.2256 H   0  0  0  0  0  0  0  0  0  0  0  0
   21.7355   -3.6002    5.6769 H   0  0  0  0  0  0  0  0  0  0  0  0
   23.8152   -5.1774    1.6601 H   0  0  0  0  0  0  0  0  0  0  0  0
   17.0907   -7.6839    1.3247 H   0  0  0  0  0  0  0  0  0  0  0  0
   11.3486   -6.6492    2.3105 H   0  0  0  0  0  0  0  0  0  0  0  0
   20.7364   -3.4647   -0.0466 H   0  0  0  0  0  0  0  0  0  0  0  0
   22.2514   -3.3684    0.5552 H   0  0  0  0  0  0  0  0  0  0  0  0
   13.1234   -5.0672    4.8734 H   0  0  0  0  0  0  0  0  0  0  0  0
   11.6599   -5.1328    4.1519 H   0  0  0  0  0  0  0  0  0  0  0  0
   15.1882   -5.3078    3.2131 H   0  0  0  0  0  0  0  0  0  0  0  0
   23.0828   -4.8002   -0.9306 H   0  0  0  0  0  0  0  0  0  0  0  0
   21.3611   -5.8769    1.0244 H   0  0  0  0  0  0  0  0  0  0  0  0
  1 27  2  0  0  0  0
  2 10  1  0  0  0  0
  2 29  1  0  0  0  0
  3 11  1  0  0  0  0
  3 30  1  0  0  0  0
  4 26  1  0  0  0  0
  5 28  1  0  0  0  0
  6  9  1  0  0  0  0
  6 14  1  0  0  0  0
  7 15  1  0  0  0  0
  7 26  2  0  0  0  0
  8 26  1  0  0  0  0
  8 28  2  0  0  0  0
  9 27  1  0  0  0  0
  9 32  1  0  0  0  0
 12 31  1  0  0  0  0
 13 31  1  0  0  0  0
 14 35  1  0  0  0  0
 15 34  2  0  0  0  0
 16 17  2  0  0  0  0
 16 19  1  0  0  0  0
 17 20  1  0  0  0  0
 18 21  2  0  0  0  0
 18 27  1  0  0  0  0
 19 35  2  0  0  0  0
 20 37  2  0  0  0  0
 21 36  1  0  0  0  0
 22 29  2  0  0  0  0
 22 33  1  0  0  0  0
 23 31  1  0  0  0  0
 23 32  1  0  0  0  0
 24 33  1  0  0  0  0
 24 34  1  0  0  0  0
 25 33  2  0  0  0  0
 25 36  1  0  0  0  0
 28 34  1  0  0  0  0
 29 30  1  0  0  0  0
 30 36  2  0  0  0  0
 32 37  1  0  0  0  0
 35 37  1  0  0  0  0
  4 38  1  0  0  0  0
  4 39  1  0  0  0  0
  5 40  1  0  0  0  0
  5 41  1  0  0  0  0
  6 42  1  0  0  0  0
 10 43  1  0  0  0  0
 10 44  1  0  0  0  0
 10 45  1  0  0  0  0
 11 46  1  0  0  0  0
 11 47  1  0  0  0  0
 11 48  1  0  0  0  0
 12 49  1  0  0  0  0
 12 50  1  0  0  0  0
 12 51  1  0  0  0  0
 13 52  1  0  0  0  0
 13 53  1  0  0  0  0
 13 54  1  0  0  0  0
 14 55  1  0  0  0  0
 14 56  1  0  0  0  0
 15 57  1  0  0  0  0
 16 58  1  0  0  0  0
 17 59  1  0  0  0  0
 18 60  1  0  0  0  0
 19 61  1  0  0  0  0
 20 62  1  0  0  0  0
 21 63  1  0  0  0  0
 22 64  1  0  0  0  0
 23 65  1  0  0  0  0
 23 66  1  0  0  0  0
 24 67  1  0  0  0  0
 24 68  1  0  0  0  0
 25 69  1  0  0  0  0
 31 70  1  0  0  0  0
 32 71  1  0  0  0  0
M  END
$$$$
CL_B_203
  unicon  05052617393D 1   1.00000     0.00000     0
unicon 1.5.0   
  1  0  0  0  0  0            999 V2000
    8.1250  -11.4950    9.2960 Cl  0  5  0  0  0  0  0  0  0  0  0  0
M  CHG  1   1  -1
M  END
$$$$
52J_C_201
  unicon  05052617393D 1   1.00000     0.00000     0
unicon 1.5.0   
 71 74  0  0  0  0            999 V2000
   13.8670  -29.7250   40.6430 O   0  0  0  0  0  0  0  0  0  0  0  0
   11.4320  -36.6200   40.6810 O   0  0  0  0  0  0  0  0  0  0  0  0
   12.0570  -34.0490   41.5260 O   0  0  0  0  0  0  0  0  0  0  0  0
   20.7920  -36.5130   38.5740 N   0  0  0  0  0  0  0  0  0  0  0  0
   17.1360  -37.4160   35.4350 N   0  0  0  0  0  0  0  0  0  0  0  0
   16.7020  -29.7130   38.6130 N   0  0  0  0  0  0  0  0  0  0  0  0
   18.5210  -36.1650   39.2800 N   0  0  0  0  0  0  0  0  0  0  0  0
   18.9380  -36.9430   37.0650 N   0  0  0  0  0  0  0  0  0  0  0  0
   15.7330  -29.2630   39.4330 N   0  0  0  0  0  0  0  0  0  0  0  0
   11.1170  -37.9520   40.2400 C   0  0  0  0  0  0  0  0  0  0  0  0
   12.2090  -34.4370   42.8920 C   0  0  0  0  0  0  0  0  0  0  0  0
   15.2320  -26.6180   42.6520 C   0  0  0  0  0  0  0  0  0  0  0  0
   17.7950  -26.1960   42.8690 C   0  0  0  0  0  0  0  0  0  0  0  0
   16.7700  -29.0020   37.3680 C   0  0  0  0  0  0  0  0  0  0  0  0
   17.1760  -36.1790   39.0570 C   0  0  0  0  0  0  0  0  0  0  0  0
   16.5310  -25.3180   36.4420 C   0  0  0  0  0  0  0  0  0  0  0  0
   16.0350  -24.7790   37.6030 C   0  0  0  0  0  0  0  0  0  0  0  0
   14.7100  -31.5840   39.5270 C   0  0  0  0  0  0  0  0  0  0  0  0
   16.7740  -26.7060   36.3610 C   0  0  0  0  0  0  0  0  0  0  0  0
   15.7660  -25.6260   38.7280 C   0  0  0  0  0  0  0  0  0  0  0  0
   14.2760  -32.5540   40.4480 C   0  0  0  0  0  0  0  0  0  0  0  0
   13.2650  -36.5960   39.1420 C   0  0  0  0  0  0  0  0  0  0  0  0
   16.7900  -27.6570   40.8880 C   0  0  0  0  0  0  0  0  0  0  0  0
   15.2330  -36.6380   37.4500 C   0  0  0  0  0  0  0  0  0  0  0  0
   14.7080  -34.6440   38.9630 C   0  0  0  0  0  0  0  0  0  0  0  0
   19.3760  -36.5370   38.3100 C   0  0  0  0  0  0  0  0  0  0  0  0
   14.7140  -30.1450   39.9190 C   0  0  0  0  0  0  0  0  0  0  0  0
   17.6150  -36.9750   36.7900 C   0  0  0  0  0  0  0  0  0  0  0  0
   12.4960  -35.9660   40.1290 C   0  0  0  0  0  0  0  0  0  0  0  0
   12.8190  -34.6680   40.5500 C   0  0  0  0  0  0  0  0  0  0  0  0
   16.5400  -26.4960   41.9160 C   0  0  0  0  0  0  0  0  0  0  0  0
   15.7310  -27.8850   39.8110 C   0  0  1  0  0  0  0  0  0  0  0  0
   14.3880  -35.9170   38.5570 C   0  0  0  0  0  0  0  0  0  0  0  0
   16.6870  -36.5980   37.7630 C   0  0  0  0  0  0  0  0  0  0  0  0
   16.5070  -27.5420   37.4770 C   0  0  0  0  0  0  0  0  0  0  0  0
   13.9180  -33.9960   39.9780 C   0  0  0  0  0  0  0  0  0  0  0  0
   16.0090  -27.0000   38.6430 C   0  0  0  0  0  0  0  0  0  0  0  0
   21.4381  -36.7870   37.8617 H   0  0  0  0  0  0  0  0  0  0  0  0
   21.1288  -36.2223   39.4696 H   0  0  0  0  0  0  0  0  0  0  0  0
   16.1567  -37.4388   35.2339 H   0  0  0  0  0  0  0  0  0  0  0  0
   17.7967  -37.6865   34.7348 H   0  0  0  0  0  0  0  0  0  0  0  0
   16.5292  -30.6784   38.4178 H   0  0  0  0  0  0  0  0  0  0  0  0
   10.3172  -38.2875   40.7378 H   0  0  0  0  0  0  0  0  0  0  0  0
   10.9189  -37.9405   39.2599 H   0  0  0  0  0  0  0  0  0  0  0  0
   11.8958  -38.5542   40.4157 H   0  0  0  0  0  0  0  0  0  0  0  0
   11.5904  -33.8970   43.4627 H   0  0  0  0  0  0  0  0  0  0  0  0
   11.9899  -35.4079   42.9891 H   0  0  0  0  0  0  0  0  0  0  0  0
   13.1531  -34.2779   43.1806 H   0  0  0  0  0  0  0  0  0  0  0  0
   14.4980  -26.8040   41.9988 H   0  0  0  0  0  0  0  0  0  0  0  0
   15.2892  -27.3676   43.3114 H   0  0  0  0  0  0  0  0  0  0  0  0
   15.0401  -25.7634   43.1346 H   0  0  0  0  0  0  0  0  0  0  0  0
   18.6251  -26.1281   42.3155 H   0  0  0  0  0  0  0  0  0  0  0  0
   17.6466  -25.3344   43.3543 H   0  0  0  0  0  0  0  0  0  0  0  0
   17.8957  -26.9385   43.5312 H   0  0  0  0  0  0  0  0  0  0  0  0
   16.0933  -29.3958   36.7459 H   0  0  0  0  0  0  0  0  0  0  0  0
   17.6859  -29.1269   36.9865 H   0  0  0  0  0  0  0  0  0  0  0  0
   16.5385  -35.9040   39.7767 H   0  0  0  0  0  0  0  0  0  0  0  0
   16.7196  -24.7291   35.6561 H   0  0  0  0  0  0  0  0  0  0  0  0
   15.8614  -23.7961   37.6640 H   0  0  0  0  0  0  0  0  0  0  0  0
   15.0142  -31.8575   38.6145 H   0  0  0  0  0  0  0  0  0  0  0  0
   17.1348  -27.1012   35.5162 H   0  0  0  0  0  0  0  0  0  0  0  0
   15.4044  -25.2338   39.5738 H   0  0  0  0  0  0  0  0  0  0  0  0
   14.1962  -32.3156   41.4159 H   0  0  0  0  0  0  0  0  0  0  0  0
   13.0316  -37.5214   38.8436 H   0  0  0  0  0  0  0  0  0  0  0  0
   16.8745  -28.5060   41.4096 H   0  0  0  0  0  0  0  0  0  0  0  0
   17.6539  -27.4643   40.4227 H   0  0  0  0  0  0  0  0  0  0  0  0
   15.0765  -36.1828   36.5735 H   0  0  0  0  0  0  0  0  0  0  0  0
   14.9401  -37.5921   37.3872 H   0  0  0  0  0  0  0  0  0  0  0  0
   15.4874  -34.1687   38.5548 H   0  0  0  0  0  0  0  0  0  0  0  0
   16.4423  -25.6740   41.3550 H   0  0  0  0  0  0  0  0  0  0  0  0
   14.8333  -27.6536   40.1858 H   0  0  0  0  0  0  0  0  0  0  0  0
  1 27  2  0  0  0  0
  2 10  1  0  0  0  0
  2 29  1  0  0  0  0
  3 11  1  0  0  0  0
  3 30  1  0  0  0  0
  4 26  1  0  0  0  0
  5 28  1  0  0  0  0
  6  9  1  0  0  0  0
  6 14  1  0  0  0  0
  7 15  1  0  0  0  0
  7 26  2  0  0  0  0
  8 26  1  0  0  0  0
  8 28  2  0  0  0  0
  9 27  1  0  0  0  0
  9 32  1  0  0  0  0
 12 31  1  0  0  0  0
 13 31  1  0  0  0  0
 14 35  1  0  0  0  0
 15 34  2  0  0  0  0
 16 17  2  0  0  0  0
 16 19  1  0  0  0  0
 17 20  1  0  0  0  0
 18 21  2  0  0  0  0
 18 27  1  0  0  0  0
 19 35  2  0  0  0  0
 20 37  2  0  0  0  0
 21 36  1  0  0  0  0
 22 29  1  0  0  0  0
 22 33  2  0  0  0  0
 23 31  1  0  0  0  0
 23 32  1  0  0  0  0
 24 33  1  0  0  0  0
 24 34  1  0  0  0  0
 25 33  1  0  0  0  0
 25 36  2  0  0  0  0
 28 34  1  0  0  0  0
 29 30  2  0  0  0  0
 30 36  1  0  0  0  0
 32 37  1  0  0  0  0
 35 37  1  0  0  0  0
  4 38  1  0  0  0  0
  4 39  1  0  0  0  0
  5 40  1  0  0  0  0
  5 41  1  0  0  0  0
  6 42  1  0  0  0  0
 10 43  1  0  0  0  0
 10 44  1  0  0  0  0
 10 45  1  0  0  0  0
 11 46  1  0  0  0  0
 11 47  1  0  0  0  0
 11 48  1  0  0  0  0
 12 49  1  0  0  0  0
 12 50  1  0  0  0  0
 12 51  1  0  0  0  0
 13 52  1  0  0  0  0
 13 53  1  0  0  0  0
 13 54  1  0  0  0  0
 14 55  1  0  0  0  0
 14 56  1  0  0  0  0
 15 57  1  0  0  0  0
 16 58  1  0  0  0  0
 17 59  1  0  0  0  0
 18 60  1  0  0  0  0
 19 61  1  0  0  0  0
 20 62  1  0  0  0  0
 21 63  1  0  0  0  0
 22 64  1  0  0  0  0
 23 65  1  0  0  0  0
 23 66  1  0  0  0  0
 24 67  1  0  0  0  0
 24 68  1  0  0  0  0
 25 69  1  0  0  0  0
 31 70  1  0  0  0  0
 32 71  1  0  0  0  0
M  END
$$$$
CL_C_203
  unicon  05052617393D 1   1.00000     0.00000     0
unicon 1.5.0   
  1  0  0  0  0  0            999 V2000
    8.4710  -40.7210   32.3540 Cl  0  5  0  0  0  0  0  0  0  0  0  0
M  CHG  1   1  -1
M  END
$$$$
52J_D_201
  unicon  05052617393D 1   1.00000     0.00000     0
unicon 1.5.0   
 71 74  0  0  0  0            999 V2000
   19.6710   39.4420   -0.5790 O   0  0  0  0  0  0  0  0  0  0  0  0
   12.6700   40.8160   -1.0260 O   0  0  0  0  0  0  0  0  0  0  0  0
   15.3660   40.2500   -0.6770 O   0  0  0  0  0  0  0  0  0  0  0  0
   12.9190   31.5750   -3.4790 N   0  0  0  0  0  0  0  0  0  0  0  0
   11.6120   35.2340   -6.4700 N   0  0  0  0  0  0  0  0  0  0  0  0
   18.8270   36.7890   -2.6780 N   0  0  0  0  0  0  0  0  0  0  0  0
   13.0220   33.8400   -2.6810 N   0  0  0  0  0  0  0  0  0  0  0  0
   12.2850   33.4320   -4.9120 N   0  0  0  0  0  0  0  0  0  0  0  0
   19.5780   37.6140   -1.9240 N   0  0  0  0  0  0  0  0  0  0  0  0
   11.2620   41.0700   -1.1700 C   0  0  0  0  0  0  0  0  0  0  0  0
   14.7460   40.8290    0.4730 C   0  0  0  0  0  0  0  0  0  0  0  0
   22.6860   37.2520    1.0200 C   0  0  0  0  0  0  0  0  0  0  0  0
   23.0130   34.7320    0.4390 C   0  0  0  0  0  0  0  0  0  0  0  0
   19.2850   36.6770   -4.0340 C   0  0  0  0  0  0  0  0  0  0  0  0
   12.8630   35.1830   -2.8500 C   0  0  0  0  0  0  0  0  0  0  0  0
   22.7310   36.3300   -5.6120 C   0  0  0  0  0  0  0  0  0  0  0  0
   23.5460   36.6580   -4.5580 C   0  0  0  0  0  0  0  0  0  0  0  0
   17.5230   38.9900   -1.3510 C   0  0  0  0  0  0  0  0  0  0  0  0
   21.3300   36.3340   -5.4450 C   0  0  0  0  0  0  0  0  0  0  0  0
   22.9720   37.0050   -3.2910 C   0  0  0  0  0  0  0  0  0  0  0  0
   16.7060   38.1240   -2.1000 C   0  0  0  0  0  0  0  0  0  0  0  0
   12.4690   39.0420   -2.6240 C   0  0  0  0  0  0  0  0  0  0  0  0
   21.2120   36.2270   -0.8220 C   0  0  0  0  0  0  0  0  0  0  0  0
   12.1930   37.1310   -4.3640 C   0  0  0  0  0  0  0  0  0  0  0  0
   14.3990   37.6770   -3.2040 C   0  0  0  0  0  0  0  0  0  0  0  0
   12.7410   32.9900   -3.6850 C   0  0  0  0  0  0  0  0  0  0  0  0
   18.9870   38.7250   -1.2410 C   0  0  0  0  0  0  0  0  0  0  0  0
   12.1080   34.7540   -5.1340 C   0  0  0  0  0  0  0  0  0  0  0  0
   13.2430   39.7960   -1.7300 C   0  0  0  0  0  0  0  0  0  0  0  0
   14.6040   39.5040   -1.5600 C   0  0  0  0  0  0  0  0  0  0  0  0
   22.5780   36.1970   -0.0490 C   0  0  0  0  0  0  0  0  0  0  0  0
   20.9820   37.3670   -1.8130 C   0  0  1  0  0  0  0  0  0  0  0  0
   13.0670   37.9670   -3.3660 C   0  0  0  0  0  0  0  0  0  0  0  0
   12.3870   35.6750   -4.1230 C   0  0  0  0  0  0  0  0  0  0  0  0
   20.7640   36.6770   -4.1880 C   0  0  0  0  0  0  0  0  0  0  0  0
   15.1940   38.4500   -2.2870 C   0  0  0  0  0  0  0  0  0  0  0  0
   21.5830   37.0080   -3.1290 C   0  0  0  0  0  0  0  0  0  0  0  0
   12.7137   30.9325   -4.2173 H   0  0  0  0  0  0  0  0  0  0  0  0
   13.2478   31.2355   -2.5978 H   0  0  0  0  0  0  0  0  0  0  0  0
   11.4815   36.2120   -6.6330 H   0  0  0  0  0  0  0  0  0  0  0  0
   11.4127   34.5752   -7.1955 H   0  0  0  0  0  0  0  0  0  0  0  0
   17.8890   37.1356   -2.6883 H   0  0  0  0  0  0  0  0  0  0  0  0
   11.0020   41.8435   -0.5920 H   0  0  0  0  0  0  0  0  0  0  0  0
   11.0579   41.2842   -2.1252 H   0  0  0  0  0  0  0  0  0  0  0  0
   10.7469   40.2589   -0.8929 H   0  0  0  0  0  0  0  0  0  0  0  0
   15.4293   41.3315    1.0026 H   0  0  0  0  0  0  0  0  0  0  0  0
   14.0230   41.4555    0.1820 H   0  0  0  0  0  0  0  0  0  0  0  0
   14.3518   40.1051    1.0392 H   0  0  0  0  0  0  0  0  0  0  0  0
   22.4005   38.1348    0.6471 H   0  0  0  0  0  0  0  0  0  0  0  0
   22.0956   37.0085    1.7895 H   0  0  0  0  0  0  0  0  0  0  0  0
   23.6337   37.3133    1.3333 H   0  0  0  0  0  0  0  0  0  0  0  0
   22.9164   34.0861   -0.3183 H   0  0  0  0  0  0  0  0  0  0  0  0
   23.9659   34.7507    0.7416 H   0  0  0  0  0  0  0  0  0  0  0  0
   22.4278   34.4460    1.1978 H   0  0  0  0  0  0  0  0  0  0  0  0
   18.9171   37.4488   -4.5526 H   0  0  0  0  0  0  0  0  0  0  0  0
   18.9316   35.8219   -4.4133 H   0  0  0  0  0  0  0  0  0  0  0  0
   13.0721   35.8173   -2.1058 H   0  0  0  0  0  0  0  0  0  0  0  0
   23.1293   36.0886   -6.4969 H   0  0  0  0  0  0  0  0  0  0  0  0
   24.5393   36.6550   -4.6735 H   0  0  0  0  0  0  0  0  0  0  0  0
   17.1226   39.7832   -0.8923 H   0  0  0  0  0  0  0  0  0  0  0  0
   20.7348   36.0951   -6.2123 H   0  0  0  0  0  0  0  0  0  0  0  0
   23.5652   37.2450   -2.5226 H   0  0  0  0  0  0  0  0  0  0  0  0
   17.0952   37.3001   -2.5120 H   0  0  0  0  0  0  0  0  0  0  0  0
   11.4991   39.2530   -2.7452 H   0  0  0  0  0  0  0  0  0  0  0  0
   20.4832   36.2734   -0.1389 H   0  0  0  0  0  0  0  0  0  0  0  0
   21.1378   35.3693   -1.3308 H   0  0  0  0  0  0  0  0  0  0  0  0
   12.4627   37.3493   -5.3019 H   0  0  0  0  0  0  0  0  0  0  0  0
   11.2290   37.3620   -4.2321 H   0  0  0  0  0  0  0  0  0  0  0  0
   14.8159   36.9302   -3.7221 H   0  0  0  0  0  0  0  0  0  0  0  0
   23.2631   36.4531   -0.7309 H   0  0  0  0  0  0  0  0  0  0  0  0
   21.4294   38.1917   -1.4671 H   0  0  0  0  0  0  0  0  0  0  0  0
  1 27  2  0  0  0  0
  2 10  1  0  0  0  0
  2 29  1  0  0  0  0
  3 11  1  0  0  0  0
  3 30  1  0  0  0  0
  4 26  1  0  0  0  0
  5 28  1  0  0  0  0
  6  9  1  0  0  0  0
  6 14  1  0  0  0  0
  7 15  1  0  0  0  0
  7 26  2  0  0  0  0
  8 26  1  0  0  0  0
  8 28  2  0  0  0  0
  9 27  1  0  0  0  0
  9 32  1  0  0  0  0
 12 31  1  0  0  0  0
 13 31  1  0  0  0  0
 14 35  1  0  0  0  0
 15 34  2  0  0  0  0
 16 17  2  0  0  0  0
 16 19  1  0  0  0  0
 17 20  1  0  0  0  0
 18 21  2  0  0  0  0
 18 27  1  0  0  0  0
 19 35  2  0  0  0  0
 20 37  2  0  0  0  0
 21 36  1  0  0  0  0
 22 29  1  0  0  0  0
 22 33  2  0  0  0  0
 23 31  1  0  0  0  0
 23 32  1  0  0  0  0
 24 33  1  0  0  0  0
 24 34  1  0  0  0  0
 25 33  1  0  0  0  0
 25 36  2  0  0  0  0
 28 34  1  0  0  0  0
 29 30  2  0  0  0  0
 30 36  1  0  0  0  0
 32 37  1  0  0  0  0
 35 37  1  0  0  0  0
  4 38  1  0  0  0  0
  4 39  1  0  0  0  0
  5 40  1  0  0  0  0
  5 41  1  0  0  0  0
  6 42  1  0  0  0  0
 10 43  1  0  0  0  0
 10 44  1  0  0  0  0
 10 45  1  0  0  0  0
 11 46  1  0  0  0  0
 11 47  1  0  0  0  0
 11 48  1  0  0  0  0
 12 49  1  0  0  0  0
 12 50  1  0  0  0  0
 12 51  1  0  0  0  0
 13 52  1  0  0  0  0
 13 53  1  0  0  0  0
 13 54  1  0  0  0  0
 14 55  1  0  0  0  0
 14 56  1  0  0  0  0
 15 57  1  0  0  0  0
 16 58  1  0  0  0  0
 17 59  1  0  0  0  0
 18 60  1  0  0  0  0
 19 61  1  0  0  0  0
 20 62  1  0  0  0  0
 21 63  1  0  0  0  0
 22 64  1  0  0  0  0
 23 65  1  0  0  0  0
 23 66  1  0  0  0  0
 24 67  1  0  0  0  0
 24 68  1  0  0  0  0
 25 69  1  0  0  0  0
 31 70  1  0  0  0  0
 32 71  1  0  0  0  0
M  END
$$$$
CL_D_203
  unicon  05052617393D 1   1.00000     0.00000     0
unicon 1.5.0   
  1  0  0  0  0  0            999 V2000
    8.1970   43.9820   -9.9840 Cl  0  5  0  0  0  0  0  0  0  0  0  0
M  CHG  1   1  -1
M  END
$$$$
52J_E_201
  unicon  05052617393D 1   1.00000     0.00000     0
unicon 1.5.0   
 71 74  0  0  0  0            999 V2000
    8.7410   36.4590   41.4310 O   0  0  0  0  0  0  0  0  0  0  0  0
    7.1180   29.4260   40.8740 O   0  0  0  0  0  0  0  0  0  0  0  0
    7.4900   31.9840   41.8880 O   0  0  0  0  0  0  0  0  0  0  0  0
   16.4540   30.6020   38.9360 N   0  0  0  0  0  0  0  0  0  0  0  0
   12.9540   29.3640   35.7390 N   0  0  0  0  0  0  0  0  0  0  0  0
   11.3920   37.0380   39.2420 N   0  0  0  0  0  0  0  0  0  0  0  0
   14.1490   30.7330   39.6080 N   0  0  0  0  0  0  0  0  0  0  0  0
   14.6730   30.0030   37.4000 N   0  0  0  0  0  0  0  0  0  0  0  0
   10.4350   37.2770   40.1600 N   0  0  0  0  0  0  0  0  0  0  0  0
    7.2210   27.9970   40.7650 C   0  0  0  0  0  0  0  0  0  0  0  0
    7.9350   31.9730   43.2460 C   0  0  0  0  0  0  0  0  0  0  0  0
    9.9040   40.1520   43.4200 C   0  0  0  0  0  0  0  0  0  0  0  0
   12.4870   40.4900   43.5000 C   0  0  0  0  0  0  0  0  0  0  0  0
   11.2810   37.8630   38.0740 C   0  0  0  0  0  0  0  0  0  0  0  0
   12.8150   30.5920   39.3630 C   0  0  0  0  0  0  0  0  0  0  0  0
   10.5580   41.5630   37.5510 C   0  0  0  0  0  0  0  0  0  0  0  0
   10.0790   41.9220   38.7860 C   0  0  0  0  0  0  0  0  0  0  0  0
    9.7370   34.8380   40.0880 C   0  0  0  0  0  0  0  0  0  0  0  0
   10.9540   40.2300   37.3120 C   0  0  0  0  0  0  0  0  0  0  0  0
    9.9830   40.9430   39.8280 C   0  0  0  0  0  0  0  0  0  0  0  0
    9.5770   33.7400   40.9510 C   0  0  0  0  0  0  0  0  0  0  0  0
    8.9630   29.7150   39.3770 C   0  0  0  0  0  0  0  0  0  0  0  0
   11.3530   38.8700   41.7240 C   0  0  0  0  0  0  0  0  0  0  0  0
   10.9500   29.9560   37.7270 C   0  0  0  0  0  0  0  0  0  0  0  0
   10.2230   31.7970   39.3490 C   0  0  0  0  0  0  0  0  0  0  0  0
   15.0510   30.4460   38.6520 C   0  0  0  0  0  0  0  0  0  0  0  0
    9.5810   36.2240   40.6190 C   0  0  0  0  0  0  0  0  0  0  0  0
   13.3630   29.8460   37.1030 C   0  0  0  0  0  0  0  0  0  0  0  0
    8.1250   30.2080   40.3860 C   0  0  0  0  0  0  0  0  0  0  0  0
    8.3210   31.5000   40.8920 C   0  0  0  0  0  0  0  0  0  0  0  0
   11.1850   40.1430   42.6280 C   0  0  0  0  0  0  0  0  0  0  0  0
   10.2790   38.6030   40.6710 C   0  0  1  0  0  0  0  0  0  0  0  0
   10.0270   30.5280   38.8590 C   0  0  0  0  0  0  0  0  0  0  0  0
   12.3890   30.1310   38.0620 C   0  0  0  0  0  0  0  0  0  0  0  0
   10.8590   39.2630   38.3470 C   0  0  0  0  0  0  0  0  0  0  0  0
    9.3610   32.3050   40.3850 C   0  0  0  0  0  0  0  0  0  0  0  0
   10.3770   39.6240   39.5880 C   0  0  0  0  0  0  0  0  0  0  0  0
   17.1329   30.3915   38.2326 H   0  0  0  0  0  0  0  0  0  0  0  0
   16.7494   30.9208   39.8366 H   0  0  0  0  0  0  0  0  0  0  0  0
   11.9853   29.2479   35.5194 H   0  0  0  0  0  0  0  0  0  0  0  0
   13.6506   29.1595   35.0513 H   0  0  0  0  0  0  0  0  0  0  0  0
   11.3291   36.0805   38.9607 H   0  0  0  0  0  0  0  0  0  0  0  0
    6.4093   27.5727   41.1664 H   0  0  0  0  0  0  0  0  0  0  0  0
    7.2891   27.7403   39.8009 H   0  0  0  0  0  0  0  0  0  0  0  0
    8.0363   27.6835   41.2518 H   0  0  0  0  0  0  0  0  0  0  0  0
    7.2211   32.3536   43.8338 H   0  0  0  0  0  0  0  0  0  0  0  0
    8.1305   31.0328   43.5251 H   0  0  0  0  0  0  0  0  0  0  0  0
    8.7648   32.5248   43.3293 H   0  0  0  0  0  0  0  0  0  0  0  0
    9.1379   39.9288   42.8173 H   0  0  0  0  0  0  0  0  0  0  0  0
    9.9603   39.4737   44.1527 H   0  0  0  0  0  0  0  0  0  0  0  0
    9.7632   41.0594   43.8159 H   0  0  0  0  0  0  0  0  0  0  0  0
   13.2968   40.4662   42.9138 H   0  0  0  0  0  0  0  0  0  0  0  0
   12.3892   41.4029   43.8964 H   0  0  0  0  0  0  0  0  0  0  0  0
   12.5862   39.8172   44.2331 H   0  0  0  0  0  0  0  0  0  0  0  0
   10.6089   37.4479   37.4609 H   0  0  0  0  0  0  0  0  0  0  0  0
   12.1731   37.8878   37.6229 H   0  0  0  0  0  0  0  0  0  0  0  0
   12.1428   30.8042   40.0723 H   0  0  0  0  0  0  0  0  0  0  0  0
   10.6262   42.2445   36.8223 H   0  0  0  0  0  0  0  0  0  0  0  0
    9.7973   42.8658   38.9585 H   0  0  0  0  0  0  0  0  0  0  0  0
    9.9543   34.6911   39.1230 H   0  0  0  0  0  0  0  0  0  0  0  0
   11.3020   39.9661   36.4124 H   0  0  0  0  0  0  0  0  0  0  0  0
    9.6337   41.2040   40.7279 H   0  0  0  0  0  0  0  0  0  0  0  0
    9.6022   33.8819   41.9406 H   0  0  0  0  0  0  0  0  0  0  0  0
    8.8194   28.7934   39.0163 H   0  0  0  0  0  0  0  0  0  0  0  0
   11.3823   38.0748   42.3297 H   0  0  0  0  0  0  0  0  0  0  0  0
   12.2265   38.9565   41.2450 H   0  0  0  0  0  0  0  0  0  0  0  0
   10.7537   30.4371   36.8726 H   0  0  0  0  0  0  0  0  0  0  0  0
   10.7586   28.9812   37.6122 H   0  0  0  0  0  0  0  0  0  0  0  0
   10.9617   32.3658   38.9874 H   0  0  0  0  0  0  0  0  0  0  0  0
   11.0954   40.9043   41.9858 H   0  0  0  0  0  0  0  0  0  0  0  0
    9.3800   38.6775   41.1026 H   0  0  0  0  0  0  0  0  0  0  0  0
  1 27  2  0  0  0  0
  2 10  1  0  0  0  0
  2 29  1  0  0  0  0
  3 11  1  0  0  0  0
  3 30  1  0  0  0  0
  4 26  1  0  0  0  0
  5 28  1  0  0  0  0
  6  9  1  0  0  0  0
  6 14  1  0  0  0  0
  7 15  1  0  0  0  0
  7 26  2  0  0  0  0
  8 26  1  0  0  0  0
  8 28  2  0  0  0  0
  9 27  1  0  0  0  0
  9 32  1  0  0  0  0
 12 31  1  0  0  0  0
 13 31  1  0  0  0  0
 14 35  1  0  0  0  0
 15 34  2  0  0  0  0
 16 17  2  0  0  0  0
 16 19  1  0  0  0  0
 17 20  1  0  0  0  0
 18 21  2  0  0  0  0
 18 27  1  0  0  0  0
 19 35  2  0  0  0  0
 20 37  2  0  0  0  0
 21 36  1  0  0  0  0
 22 29  2  0  0  0  0
 22 33  1  0  0  0  0
 23 31  1  0  0  0  0
 23 32  1  0  0  0  0
 24 33  1  0  0  0  0
 24 34  1  0  0  0  0
 25 33  2  0  0  0  0
 25 36  1  0  0  0  0
 28 34  1  0  0  0  0
 29 30  1  0  0  0  0
 30 36  2  0  0  0  0
 32 37  1  0  0  0  0
 35 37  1  0  0  0  0
  4 38  1  0  0  0  0
  4 39  1  0  0  0  0
  5 40  1  0  0  0  0
  5 41  1  0  0  0  0
  6 42  1  0  0  0  0
 10 43  1  0  0  0  0
 10 44  1  0  0  0  0
 10 45  1  0  0  0  0
 11 46  1  0  0  0  0
 11 47  1  0  0  0  0
 11 48  1  0  0  0  0
 12 49  1  0  0  0  0
 12 50  1  0  0  0  0
 12 51  1  0  0  0  0
 13 52  1  0  0  0  0
 13 53  1  0  0  0  0
 13 54  1  0  0  0  0
 14 55  1  0  0  0  0
 14 56  1  0  0  0  0
 15 57  1  0  0  0  0
 16 58  1  0  0  0  0
 17 59  1  0  0  0  0
 18 60  1  0  0  0  0
 19 61  1  0  0  0  0
 20 62  1  0  0  0  0
 21 63  1  0  0  0  0
 22 64  1  0  0  0  0
 23 65  1  0  0  0  0
 23 66  1  0  0  0  0
 24 67  1  0  0  0  0
 24 68  1  0  0  0  0
 25 69  1  0  0  0  0
 31 70  1  0  0  0  0
 32 71  1  0  0  0  0
M  END
$$$$
CL_E_203
  unicon  05052617393D 1   1.00000     0.00000     0
unicon 1.5.0   
  1  0  0  0  0  0            999 V2000
    4.5430   25.1540   32.2800 Cl  0  5  0  0  0  0  0  0  0  0  0  0
M  CHG  1   1  -1
M  END
$$$$
52J_F_201
  unicon  05052617393D 1   1.00000     0.00000     0
unicon 1.5.0   
 71 74  0  0  0  0            999 V2000
  -23.6190    3.0390   42.9130 O   0  0  0  0  0  0  0  0  0  0  0  0
  -24.7760   -3.9490   42.2640 O   0  0  0  0  0  0  0  0  0  0  0  0
  -24.4510   -1.2050   42.5250 O   0  0  0  0  0  0  0  0  0  0  0  0
  -15.6780   -3.4200   39.7460 N   0  0  0  0  0  0  0  0  0  0  0  0
  -19.2760   -4.8660   36.7460 N   0  0  0  0  0  0  0  0  0  0  0  0
  -20.9640    2.5220   40.7150 N   0  0  0  0  0  0  0  0  0  0  0  0
  -17.9580   -3.2700   40.4870 N   0  0  0  0  0  0  0  0  0  0  0  0
  -17.5050   -4.1200   38.3070 N   0  0  0  0  0  0  0  0  0  0  0  0
  -21.8500    3.1670   41.4970 N   0  0  0  0  0  0  0  0  0  0  0  0
  -25.0780   -5.3280   41.9960 C   0  0  0  0  0  0  0  0  0  0  0  0
  -24.6450   -1.7180   43.8440 C   0  0  0  0  0  0  0  0  0  0  0  0
  -21.2700    5.0930   45.0860 C   0  0  0  0  0  0  0  0  0  0  0  0
  -20.2030    7.1940   43.9730 C   0  0  0  0  0  0  0  0  0  0  0  0
  -20.9660    2.9780   39.3540 C   0  0  0  0  0  0  0  0  0  0  0  0
  -19.2980   -3.4340   40.2970 C   0  0  0  0  0  0  0  0  0  0  0  0
  -20.9820    6.4450   37.7830 C   0  0  0  0  0  0  0  0  0  0  0  0
  -21.3730    7.2200   38.8460 C   0  0  0  0  0  0  0  0  0  0  0  0
  -22.9260    0.9560   42.1420 C   0  0  0  0  0  0  0  0  0  0  0  0
  -20.8460    5.0500   37.9440 C   0  0  0  0  0  0  0  0  0  0  0  0
  -21.6430    6.6110   40.1150 C   0  0  0  0  0  0  0  0  0  0  0  0
  -22.5210    0.2910   40.9710 C   0  0  0  0  0  0  0  0  0  0  0  0
  -23.0630   -4.0280   40.5930 C   0  0  0  0  0  0  0  0  0  0  0  0
  -20.6890    4.9800   42.5810 C   0  0  0  0  0  0  0  0  0  0  0  0
  -21.2150   -4.1750   38.7730 C   0  0  0  0  0  0  0  0  0  0  0  0
  -21.9130   -1.9970   39.9050 C   0  0  0  0  0  0  0  0  0  0  0  0
  -17.0880   -3.6040   39.5180 C   0  0  0  0  0  0  0  0  0  0  0  0
  -22.8470    2.4440   42.2280 C   0  0  0  0  0  0  0  0  0  0  0  0
  -18.8220   -4.3040   38.0650 C   0  0  0  0  0  0  0  0  0  0  0  0
  -23.8460   -3.3020   41.5010 C   0  0  0  0  0  0  0  0  0  0  0  0
  -23.6760   -1.9160   41.6260 C   0  0  0  0  0  0  0  0  0  0  0  0
  -21.0980    5.8720   43.8080 C   0  0  0  0  0  0  0  0  0  0  0  0
  -21.7870    4.5930   41.5910 C   0  0  1  0  0  0  0  0  0  0  0  0
  -22.0830   -3.3540   39.7880 C   0  0  0  0  0  0  0  0  0  0  0  0
  -19.7650   -3.9720   39.0400 C   0  0  0  0  0  0  0  0  0  0  0  0
  -21.1130    4.4500   39.2030 C   0  0  0  0  0  0  0  0  0  0  0  0
  -22.7160   -1.2500   40.8370 C   0  0  0  0  0  0  0  0  0  0  0  0
  -21.5080    5.2290   40.2710 C   0  0  0  0  0  0  0  0  0  0  0  0
  -15.0202   -3.6644   39.0335 H   0  0  0  0  0  0  0  0  0  0  0  0
  -15.3567   -3.0478   40.6168 H   0  0  0  0  0  0  0  0  0  0  0  0
  -20.2509   -5.0013   36.5691 H   0  0  0  0  0  0  0  0  0  0  0  0
  -18.6030   -5.1044   36.0458 H   0  0  0  0  0  0  0  0  0  0  0  0
  -21.1855    1.5469   40.7228 H   0  0  0  0  0  0  0  0  0  0  0  0
  -25.7737   -5.6480   42.6391 H   0  0  0  0  0  0  0  0  0  0  0  0
  -25.4215   -5.4184   41.0612 H   0  0  0  0  0  0  0  0  0  0  0  0
  -24.2490   -5.8773   42.1011 H   0  0  0  0  0  0  0  0  0  0  0  0
  -25.2244   -1.0903   44.3639 H   0  0  0  0  0  0  0  0  0  0  0  0
  -25.0868   -2.6136   43.7917 H   0  0  0  0  0  0  0  0  0  0  0  0
  -23.7596   -1.8092   44.2997 H   0  0  0  0  0  0  0  0  0  0  0  0
  -21.8350    4.2866   44.9114 H   0  0  0  0  0  0  0  0  0  0  0  0
  -20.3740    4.8053   45.4242 H   0  0  0  0  0  0  0  0  0  0  0  0
  -21.7152    5.6700   45.7708 H   0  0  0  0  0  0  0  0  0  0  0  0
  -20.1306    7.6598   43.0911 H   0  0  0  0  0  0  0  0  0  0  0  0
  -20.6310    7.8053   44.6387 H   0  0  0  0  0  0  0  0  0  0  0  0
  -19.2898    6.9406   44.2921 H   0  0  0  0  0  0  0  0  0  0  0  0
  -21.7259    2.5366   38.8768 H   0  0  0  0  0  0  0  0  0  0  0  0
  -20.1024    2.7043   38.9306 H   0  0  0  0  0  0  0  0  0  0  0  0
  -19.9472   -3.1859   41.0160 H   0  0  0  0  0  0  0  0  0  0  0  0
  -20.7940    6.8680   36.8966 H   0  0  0  0  0  0  0  0  0  0  0  0
  -21.4695    8.2091   38.7352 H   0  0  0  0  0  0  0  0  0  0  0  0
  -23.2684    0.4298   42.9204 H   0  0  0  0  0  0  0  0  0  0  0  0
  -20.5613    4.4833   37.1708 H   0  0  0  0  0  0  0  0  0  0  0  0
  -21.9283    7.1756   40.8895 H   0  0  0  0  0  0  0  0  0  0  0  0
  -22.1067    0.8081   40.2220 H   0  0  0  0  0  0  0  0  0  0  0  0
  -23.1869   -5.0164   40.5056 H   0  0  0  0  0  0  0  0  0  0  0  0
  -20.3005    4.1328   42.9432 H   0  0  0  0  0  0  0  0  0  0  0  0
  -19.9873    5.4769   42.0704 H   0  0  0  0  0  0  0  0  0  0  0  0
  -21.4234   -3.8729   37.8428 H   0  0  0  0  0  0  0  0  0  0  0  0
  -21.4332   -5.1466   38.8646 H   0  0  0  0  0  0  0  0  0  0  0  0
  -21.2318   -1.5278   39.3431 H   0  0  0  0  0  0  0  0  0  0  0  0
  -22.0136    6.2080   43.5871 H   0  0  0  0  0  0  0  0  0  0  0  0
  -22.6633    4.9322   41.9331 H   0  0  0  0  0  0  0  0  0  0  0  0
  1 27  2  0  0  0  0
  2 10  1  0  0  0  0
  2 29  1  0  0  0  0
  3 11  1  0  0  0  0
  3 30  1  0  0  0  0
  4 26  1  0  0  0  0
  5 28  1  0  0  0  0
  6  9  1  0  0  0  0
  6 14  1  0  0  0  0
  7 15  1  0  0  0  0
  7 26  2  0  0  0  0
  8 26  1  0  0  0  0
  8 28  2  0  0  0  0
  9 27  1  0  0  0  0
  9 32  1  0  0  0  0
 12 31  1  0  0  0  0
 13 31  1  0  0  0  0
 14 35  1  0  0  0  0
 15 34  2  0  0  0  0
 16 17  2  0  0  0  0
 16 19  1  0  0  0  0
 17 20  1  0  0  0  0
 18 21  2  0  0  0  0
 18 27  1  0  0  0  0
 19 35  2  0  0  0  0
 20 37  2  0  0  0  0
 21 36  1  0  0  0  0
 22 29  1  0  0  0  0
 22 33  2  0  0  0  0
 23 31  1  0  0  0  0
 23 32  1  0  0  0  0
 24 33  1  0  0  0  0
 24 34  1  0  0  0  0
 25 33  1  0  0  0  0
 25 36  2  0  0  0  0
 28 34  1  0  0  0  0
 29 30  2  0  0  0  0
 30 36  1  0  0  0  0
 32 37  1  0  0  0  0
 35 37  1  0  0  0  0
  4 38  1  0  0  0  0
  4 39  1  0  0  0  0
  5 40  1  0  0  0  0
  5 41  1  0  0  0  0
  6 42  1  0  0  0  0
 10 43  1  0  0  0  0
 10 44  1  0  0  0  0
 10 45  1  0  0  0  0
 11 46  1  0  0  0  0
 11 47  1  0  0  0  0
 11 48  1  0  0  0  0
 12 49  1  0  0  0  0
 12 50  1  0  0  0  0
 12 51  1  0  0  0  0
 13 52  1  0  0  0  0
 13 53  1  0  0  0  0
 13 54  1  0  0  0  0
 14 55  1  0  0  0  0
 14 56  1  0  0  0  0
 15 57  1  0  0  0  0
 16 58  1  0  0  0  0
 17 59  1  0  0  0  0
 18 60  1  0  0  0  0
 19 61  1  0  0  0  0
 20 62  1  0  0  0  0
 21 63  1  0  0  0  0
 22 64  1  0  0  0  0
 23 65  1  0  0  0  0
 23 66  1  0  0  0  0
 24 67  1  0  0  0  0
 24 68  1  0  0  0  0
 25 69  1  0  0  0  0
 31 70  1  0  0  0  0
 32 71  1  0  0  0  0
M  END
$$$$
CL_F_203
  unicon  05052617393D 1   1.00000     0.00000     0
unicon 1.5.0   
  1  0  0  0  0  0            999 V2000
  -27.9140   -8.8840   33.3040 Cl  0  5  0  0  0  0  0  0  0  0  0  0
M  CHG  1   1  -1
M  END
$$$$
52J_G_201
  unicon  05052617393D 1   1.00000     0.00000     0
unicon 1.5.0   
 71 74  0  0  0  0            999 V2000
  -14.8280    6.1320    0.5640 O   0  0  0  0  0  0  0  0  0  0  0  0
  -22.1300    7.3990   -0.0270 O   0  0  0  0  0  0  0  0  0  0  0  0
  -19.5670    7.2900    1.0350 O   0  0  0  0  0  0  0  0  0  0  0  0
  -20.0720   -1.6860   -2.1690 N   0  0  0  0  0  0  0  0  0  0  0  0
  -21.4990    1.7720   -5.3320 N   0  0  0  0  0  0  0  0  0  0  0  0
  -14.2830    3.5970   -1.7640 N   0  0  0  0  0  0  0  0  0  0  0  0
  -20.1180    0.6100   -1.4580 N   0  0  0  0  0  0  0  0  0  0  0  0
  -20.7690    0.0740   -3.6880 N   0  0  0  0  0  0  0  0  0  0  0  0
  -14.0200    4.5120   -0.8130 N   0  0  0  0  0  0  0  0  0  0  0  0
  -23.4760    7.3980   -0.5320 C   0  0  0  0  0  0  0  0  0  0  0  0
  -19.1010    6.7360    2.2670 C   0  0  0  0  0  0  0  0  0  0  0  0
  -10.9030    4.5770    2.5250 C   0  0  0  0  0  0  0  0  0  0  0  0
  -10.4040    2.1390    1.7490 C   0  0  0  0  0  0  0  0  0  0  0  0
  -13.5120    3.7850   -2.9590 C   0  0  0  0  0  0  0  0  0  0  0  0
  -20.3490    1.9340   -1.6830 C   0  0  0  0  0  0  0  0  0  0  0  0
   -9.8170    4.4540   -3.5640 C   0  0  0  0  0  0  0  0  0  0  0  0
   -9.4120    4.8730   -2.3210 C   0  0  0  0  0  0  0  0  0  0  0  0
  -16.4680    5.1610   -0.7770 C   0  0  0  0  0  0  0  0  0  0  0  0
  -11.1640    4.0950   -3.7790 C   0  0  0  0  0  0  0  0  0  0  0  0
  -10.3570    4.9450   -1.2460 C   0  0  0  0  0  0  0  0  0  0  0  0
  -17.5580    5.4560    0.0600 C   0  0  0  0  0  0  0  0  0  0  0  0
  -21.5960    5.6590   -1.5830 C   0  0  0  0  0  0  0  0  0  0  0  0
  -12.3760    3.5640    0.6750 C   0  0  0  0  0  0  0  0  0  0  0  0
  -21.0880    3.7790   -3.2990 C   0  0  0  0  0  0  0  0  0  0  0  0
  -19.3820    4.6540   -1.6060 C   0  0  0  0  0  0  0  0  0  0  0  0
  -20.3230   -0.2930   -2.4340 C   0  0  0  0  0  0  0  0  0  0  0  0
  -15.0710    5.3250   -0.2780 C   0  0  0  0  0  0  0  0  0  0  0  0
  -21.0140    1.3740   -3.9660 C   0  0  0  0  0  0  0  0  0  0  0  0
  -21.2260    6.5100   -0.5330 C   0  0  0  0  0  0  0  0  0  0  0  0
  -19.9290    6.4470   -0.0020 C   0  0  0  0  0  0  0  0  0  0  0  0
  -10.9770    3.5940    1.3870 C   0  0  0  0  0  0  0  0  0  0  0  0
  -12.6780    4.6610   -0.3440 C   0  0  1  0  0  0  0  0  0  0  0  0
  -20.6540    4.7180   -2.1200 C   0  0  0  0  0  0  0  0  0  0  0  0
  -20.8160    2.3490   -2.9860 C   0  0  0  0  0  0  0  0  0  0  0  0
  -12.0970    4.1660   -2.7110 C   0  0  0  0  0  0  0  0  0  0  0  0
  -18.9990    5.5270   -0.5270 C   0  0  0  0  0  0  0  0  0  0  0  0
  -11.6920    4.5880   -1.4610 C   0  0  0  0  0  0  0  0  0  0  0  0
  -20.2208   -2.3662   -2.8867 H   0  0  0  0  0  0  0  0  0  0  0  0
  -19.7489   -1.9731   -1.2672 H   0  0  0  0  0  0  0  0  0  0  0  0
  -21.6802    2.7337   -5.5377 H   0  0  0  0  0  0  0  0  0  0  0  0
  -21.6404    1.0751   -6.0351 H   0  0  0  0  0  0  0  0  0  0  0  0
  -15.2532    3.6537   -1.9997 H   0  0  0  0  0  0  0  0  0  0  0  0
  -24.0087    8.1022   -0.0625 H   0  0  0  0  0  0  0  0  0  0  0  0
  -23.4639    7.5883   -1.5137 H   0  0  0  0  0  0  0  0  0  0  0  0
  -23.8917    6.5029   -0.3711 H   0  0  0  0  0  0  0  0  0  0  0  0
  -18.8837    7.4756    2.9040 H   0  0  0  0  0  0  0  0  0  0  0  0
  -19.8127    6.1547    2.6614 H   0  0  0  0  0  0  0  0  0  0  0  0
  -18.2805    6.1900    2.0978 H   0  0  0  0  0  0  0  0  0  0  0  0
  -11.2750    5.4571    2.2300 H   0  0  0  0  0  0  0  0  0  0  0  0
  -11.4354    4.2325    3.2982 H   0  0  0  0  0  0  0  0  0  0  0  0
   -9.9495    4.6943    2.8027 H   0  0  0  0  0  0  0  0  0  0  0  0
  -10.4842    1.5412    0.9514 H   0  0  0  0  0  0  0  0  0  0  0  0
   -9.4425    2.2156    2.0128 H   0  0  0  0  0  0  0  0  0  0  0  0
  -10.9283    1.7537    2.5084 H   0  0  0  0  0  0  0  0  0  0  0  0
  -13.9420    4.5075   -3.5004 H   0  0  0  0  0  0  0  0  0  0  0  0
  -13.5213    2.9298   -3.4772 H   0  0  0  0  0  0  0  0  0  0  0  0
  -20.1979    2.6069   -0.9588 H   0  0  0  0  0  0  0  0  0  0  0  0
   -9.1587    4.4034   -4.3151 H   0  0  0  0  0  0  0  0  0  0  0  0
   -8.4576    5.1280   -2.1657 H   0  0  0  0  0  0  0  0  0  0  0  0
  -16.6291    4.8400   -1.7103 H   0  0  0  0  0  0  0  0  0  0  0  0
  -11.4619    3.7904   -4.6837 H   0  0  0  0  0  0  0  0  0  0  0  0
  -10.0614    5.2509   -0.3410 H   0  0  0  0  0  0  0  0  0  0  0  0
  -17.4079    5.6207    1.0349 H   0  0  0  0  0  0  0  0  0  0  0  0
  -22.5209    5.7074   -1.9602 H   0  0  0  0  0  0  0  0  0  0  0  0
  -13.0751    3.6180    1.3880 H   0  0  0  0  0  0  0  0  0  0  0  0
  -12.4508    2.6869    0.2005 H   0  0  0  0  0  0  0  0  0  0  0  0
  -20.5796    4.0340   -4.1215 H   0  0  0  0  0  0  0  0  0  0  0  0
  -22.0676    3.8951   -3.4632 H   0  0  0  0  0  0  0  0  0  0  0  0
  -18.7228    4.0020   -1.9806 H   0  0  0  0  0  0  0  0  0  0  0  0
  -10.3472    3.9526    0.6980 H   0  0  0  0  0  0  0  0  0  0  0  0
  -12.5907    5.5503    0.1049 H   0  0  0  0  0  0  0  0  0  0  0  0
  1 27  2  0  0  0  0
  2 10  1  0  0  0  0
  2 29  1  0  0  0  0
  3 11  1  0  0  0  0
  3 30  1  0  0  0  0
  4 26  1  0  0  0  0
  5 28  1  0  0  0  0
  6  9  1  0  0  0  0
  6 14  1  0  0  0  0
  7 15  1  0  0  0  0
  7 26  2  0  0  0  0
  8 26  1  0  0  0  0
  8 28  2  0  0  0  0
  9 27  1  0  0  0  0
  9 32  1  0  0  0  0
 12 31  1  0  0  0  0
 13 31  1  0  0  0  0
 14 35  1  0  0  0  0
 15 34  2  0  0  0  0
 16 17  2  0  0  0  0
 16 19  1  0  0  0  0
 17 20  1  0  0  0  0
 18 21  2  0  0  0  0
 18 27  1  0  0  0  0
 19 35  2  0  0  0  0
 20 37  2  0  0  0  0
 21 36  1  0  0  0  0
 22 29  1  0  0  0  0
 22 33  2  0  0  0  0
 23 31  1  0  0  0  0
 23 32  1  0  0  0  0
 24 33  1  0  0  0  0
 24 34  1  0  0  0  0
 25 33  1  0  0  0  0
 25 36  2  0  0  0  0
 28 34  1  0  0  0  0
 29 30  2  0  0  0  0
 30 36  1  0  0  0  0
 32 37  1  0  0  0  0
 35 37  1  0  0  0  0
  4 38  1  0  0  0  0
  4 39  1  0  0  0  0
  5 40  1  0  0  0  0
  5 41  1  0  0  0  0
  6 42  1  0  0  0  0
 10 43  1  0  0  0  0
 10 44  1  0  0  0  0
 10 45  1  0  0  0  0
 11 46  1  0  0  0  0
 11 47  1  0  0  0  0
 11 48  1  0  0  0  0
 12 49  1  0  0  0  0
 12 50  1  0  0  0  0
 12 51  1  0  0  0  0
 13 52  1  0  0  0  0
 13 53  1  0  0  0  0
 13 54  1  0  0  0  0
 14 55  1  0  0  0  0
 14 56  1  0  0  0  0
 15 57  1  0  0  0  0
 16 58  1  0  0  0  0
 17 59  1  0  0  0  0
 18 60  1  0  0  0  0
 19 61  1  0  0  0  0
 20 62  1  0  0  0  0
 21 63  1  0  0  0  0
 22 64  1  0  0  0  0
 23 65  1  0  0  0  0
 23 66  1  0  0  0  0
 24 67  1  0  0  0  0
 24 68  1  0  0  0  0
 25 69  1  0  0  0  0
 31 70  1  0  0  0  0
 32 71  1  0  0  0  0
M  END
$$$$
CL_G_203
  unicon  05052617393D 1   1.00000     0.00000     0
unicon 1.5.0   
  1  0  0  0  0  0            999 V2000
  -25.8290   10.0110   -8.4430 Cl  0  5  0  0  0  0  0  0  0  0  0  0
M  CHG  1   1  -1
M  END
$$$$
52J_H_201
  unicon  05052617393D 1   1.00000     0.00000     0
unicon 1.5.0   
 71 74  0  0  0  0            999 V2000
   22.6420    2.9520   41.5120 O   0  0  0  0  0  0  0  0  0  0  0  0
   24.6000   -4.0040   42.0020 O   0  0  0  0  0  0  0  0  0  0  0  0
   24.0640   -1.4680   41.0020 O   0  0  0  0  0  0  0  0  0  0  0  0
   15.3340   -2.7850   44.7050 N   0  0  0  0  0  0  0  0  0  0  0  0
   19.1010   -4.1500   47.5240 N   0  0  0  0  0  0  0  0  0  0  0  0
   20.0970    3.3950   43.8540 N   0  0  0  0  0  0  0  0  0  0  0  0
   17.5620   -2.7340   43.7990 N   0  0  0  0  0  0  0  0  0  0  0  0
   17.2430   -3.4490   46.0500 N   0  0  0  0  0  0  0  0  0  0  0  0
   20.9820    3.6850   42.8820 N   0  0  0  0  0  0  0  0  0  0  0  0
   24.6700   -5.4130   42.2780 C   0  0  0  0  0  0  0  0  0  0  0  0
   23.6610   -1.6920   39.6500 C   0  0  0  0  0  0  0  0  0  0  0  0
   20.8100    6.5530   39.4540 C   0  0  0  0  0  0  0  0  0  0  0  0
   18.3400    7.0120   40.1420 C   0  0  0  0  0  0  0  0  0  0  0  0
   20.2500    4.2140   45.0230 C   0  0  0  0  0  0  0  0  0  0  0  0
   18.9090   -2.9210   43.9040 C   0  0  0  0  0  0  0  0  0  0  0  0
   20.9470    7.9160   45.5550 C   0  0  0  0  0  0  0  0  0  0  0  0
   21.3200    8.3070   44.2940 C   0  0  0  0  0  0  0  0  0  0  0  0
   21.8110    1.2900   42.9140 C   0  0  0  0  0  0  0  0  0  0  0  0
   20.5940    6.5720   45.7990 C   0  0  0  0  0  0  0  0  0  0  0  0
   21.3510    7.3480   43.2280 C   0  0  0  0  0  0  0  0  0  0  0  0
   21.9530    0.1960   42.0410 C   0  0  0  0  0  0  0  0  0  0  0  0
   22.8210   -3.7890   43.5910 C   0  0  0  0  0  0  0  0  0  0  0  0
   19.8370    5.2410   41.4420 C   0  0  0  0  0  0  0  0  0  0  0  0
   20.9100   -3.6270   45.3410 C   0  0  0  0  0  0  0  0  0  0  0  0
   21.4750   -1.7650   43.6780 C   0  0  0  0  0  0  0  0  0  0  0  0
   16.7530   -2.9910   44.8430 C   0  0  0  0  0  0  0  0  0  0  0  0
   21.8640    2.6780   42.3720 C   0  0  0  0  0  0  0  0  0  0  0  0
   18.5700   -3.6520   46.2100 C   0  0  0  0  0  0  0  0  0  0  0  0
   23.5850   -3.2650   42.5390 C   0  0  0  0  0  0  0  0  0  0  0  0
   23.3080   -1.9850   42.0410 C   0  0  0  0  0  0  0  0  0  0  0  0
   19.8140    6.5560   40.5830 C   0  0  0  0  0  0  0  0  0  0  0  0
   21.0310    5.0170   42.3680 C   0  0  1  0  0  0  0  0  0  0  0  0
   21.7490   -3.0210   44.1610 C   0  0  0  0  0  0  0  0  0  0  0  0
   19.4510   -3.3990   45.1550 C   0  0  0  0  0  0  0  0  0  0  0  0
   20.6250    5.6250   44.7420 C   0  0  0  0  0  0  0  0  0  0  0  0
   22.2600   -1.2250   42.5990 C   0  0  0  0  0  0  0  0  0  0  0  0
   21.0000    6.0180   43.4730 C   0  0  0  0  0  0  0  0  0  0  0  0
   14.7242   -2.9731   45.4750 H   0  0  0  0  0  0  0  0  0  0  0  0
   14.9587   -2.4539   43.8392 H   0  0  0  0  0  0  0  0  0  0  0  0
   20.0826   -4.3001   47.6421 H   0  0  0  0  0  0  0  0  0  0  0  0
   18.4729   -4.3315   48.2807 H   0  0  0  0  0  0  0  0  0  0  0  0
   20.2180    2.4382   44.1185 H   0  0  0  0  0  0  0  0  0  0  0  0
   25.4648   -5.8044   41.8143 H   0  0  0  0  0  0  0  0  0  0  0  0
   24.7556   -5.5557   43.2641 H   0  0  0  0  0  0  0  0  0  0  0  0
   23.8382   -5.8591   41.9476 H   0  0  0  0  0  0  0  0  0  0  0  0
   24.3127   -1.2538   39.0309 H   0  0  0  0  0  0  0  0  0  0  0  0
   23.6373   -2.6750   39.4677 H   0  0  0  0  0  0  0  0  0  0  0  0
   22.7508   -1.3041   39.5048 H   0  0  0  0  0  0  0  0  0  0  0  0
   21.7024    6.2605   39.7976 H   0  0  0  0  0  0  0  0  0  0  0  0
   20.5040    5.9218   38.7413 H   0  0  0  0  0  0  0  0  0  0  0  0
   20.8851    7.4746   39.0733 H   0  0  0  0  0  0  0  0  0  0  0  0
   17.7330    6.9911   40.9364 H   0  0  0  0  0  0  0  0  0  0  0  0
   18.3748    7.9409   39.7734 H   0  0  0  0  0  0  0  0  0  0  0  0
   17.9937    6.3881   39.4414 H   0  0  0  0  0  0  0  0  0  0  0  0
   20.9624    3.8097   45.5966 H   0  0  0  0  0  0  0  0  0  0  0  0
   19.3822    4.2144   45.5199 H   0  0  0  0  0  0  0  0  0  0  0  0
   19.5110   -2.7305   43.1285 H   0  0  0  0  0  0  0  0  0  0  0  0
   20.9254    8.5826   46.3001 H   0  0  0  0  0  0  0  0  0  0  0  0
   21.5699    9.2592   44.1184 H   0  0  0  0  0  0  0  0  0  0  0  0
   21.6752    1.1375   43.8929 H   0  0  0  0  0  0  0  0  0  0  0  0
   20.3216    6.2861   46.7177 H   0  0  0  0  0  0  0  0  0  0  0  0
   21.6240    7.6315   42.3087 H   0  0  0  0  0  0  0  0  0  0  0  0
   21.8561    0.3319   41.0550 H   0  0  0  0  0  0  0  0  0  0  0  0
   23.0231   -4.7016   43.9464 H   0  0  0  0  0  0  0  0  0  0  0  0
   19.8028    4.4692   40.8071 H   0  0  0  0  0  0  0  0  0  0  0  0
   19.0144    5.2416   42.0106 H   0  0  0  0  0  0  0  0  0  0  0  0
   21.1983   -3.1979   46.1970 H   0  0  0  0  0  0  0  0  0  0  0  0
   21.0806   -4.6112   45.3875 H   0  0  0  0  0  0  0  0  0  0  0  0
   20.7317   -1.2267   44.0750 H   0  0  0  0  0  0  0  0  0  0  0  0
   20.1305    7.2738   41.2032 H   0  0  0  0  0  0  0  0  0  0  0  0
   21.8755    5.1341   41.8454 H   0  0  0  0  0  0  0  0  0  0  0  0
  1 27  2  0  0  0  0
  2 10  1  0  0  0  0
  2 29  1  0  0  0  0
  3 11  1  0  0  0  0
  3 30  1  0  0  0  0
  4 26  1  0  0  0  0
  5 28  1  0  0  0  0
  6  9  1  0  0  0  0
  6 14  1  0  0  0  0
  7 15  1  0  0  0  0
  7 26  2  0  0  0  0
  8 26  1  0  0  0  0
  8 28  2  0  0  0  0
  9 27  1  0  0  0  0
  9 32  1  0  0  0  0
 12 31  1  0  0  0  0
 13 31  1  0  0  0  0
 14 35  1  0  0  0  0
 15 34  2  0  0  0  0
 16 17  2  0  0  0  0
 16 19  1  0  0  0  0
 17 20  1  0  0  0  0
 18 21  2  0  0  0  0
 18 27  1  0  0  0  0
 19 35  2  0  0  0  0
 20 37  2  0  0  0  0
 21 36  1  0  0  0  0
 22 29  2  0  0  0  0
 22 33  1  0  0  0  0
 23 31  1  0  0  0  0
 23 32  1  0  0  0  0
 24 33  1  0  0  0  0
 24 34  1  0  0  0  0
 25 33  2  0  0  0  0
 25 36  1  0  0  0  0
 28 34  1  0  0  0  0
 29 30  1  0  0  0  0
 30 36  2  0  0  0  0
 32 37  1  0  0  0  0
 35 37  1  0  0  0  0
  4 38  1  0  0  0  0
  4 39  1  0  0  0  0
  5 40  1  0  0  0  0
  5 41  1  0  0  0  0
  6 42  1  0  0  0  0
 10 43  1  0  0  0  0
 10 44  1  0  0  0  0
 10 45  1  0  0  0  0
 11 46  1  0  0  0  0
 11 47  1  0  0  0  0
 11 48  1  0  0  0  0
 12 49  1  0  0  0  0
 12 50  1  0  0  0  0
 12 51  1  0  0  0  0
 13 52  1  0  0  0  0
 13 53  1  0  0  0  0
 13 54  1  0  0  0  0
 14 55  1  0  0  0  0
 14 56  1  0  0  0  0
 15 57  1  0  0  0  0
 16 58  1  0  0  0  0
 17 59  1  0  0  0  0
 18 60  1  0  0  0  0
 19 61  1  0  0  0  0
 20 62  1  0  0  0  0
 21 63  1  0  0  0  0
 22 64  1  0  0  0  0
 23 65  1  0  0  0  0
 23 66  1  0  0  0  0
 24 67  1  0  0  0  0
 24 68  1  0  0  0  0
 25 69  1  0  0  0  0
 31 70  1  0  0  0  0
 32 71  1  0  0  0  0
M  END
$$$$
CL_H_202
  unicon  05052617393D 1   1.00000     0.00000     0
unicon 1.5.0   
  1  0  0  0  0  0            999 V2000
   27.7560   -7.9170   50.8550 Cl  0  5  0  0  0  0  0  0  0  0  0  0
M  CHG  1   1  -1
M  END
$$$$
