53I_A_202
  unicon  05052617403D 1   1.00000     0.00000     0
unicon 1.5.0   
 71 74  0  0  0  0            999 V2000
   21.7780  -26.2860    0.7110 O   0  0  0  0  0  0  0  0  0  0  0  0
   14.9590  -25.7930   -1.4710 O   0  0  0  0  0  0  0  0  0  0  0  0
   17.6330  -25.7980   -0.5310 O   0  0  0  0  0  0  0  0  0  0  0  0
   16.6500  -35.3570   -3.7720 N   0  0  0  0  0  0  0  0  0  0  0  0
   15.3520  -31.5480   -6.3540 N   0  0  0  0  0  0  0  0  0  0  0  0
   22.3380  -28.6820   -1.9090 N   0  0  0  0  0  0  0  0  0  0  0  0
   16.7380  -33.1480   -2.7640 N   0  0  0  0  0  0  0  0  0  0  0  0
   16.0290  -33.4120   -4.9770 N   0  0  0  0  0  0  0  0  0  0  0  0
   22.5600  -27.9280   -0.7920 N   0  0  0  0  0  0  0  0  0  0  0  0
   13.6120  -25.8290   -1.9380 C   0  0  0  0  0  0  0  0  0  0  0  0
   17.2350  -24.4800   -0.6250 C   0  0  0  0  0  0  0  0  0  0  0  0
   24.6210  -24.4680   -0.6000 C   0  0  0  0  0  0  0  0  0  0  0  0
   25.5550  -26.1650   -2.3260 C   0  0  0  0  0  0  0  0  0  0  0  0
   23.3590  -29.5490   -2.3760 C   0  0  0  0  0  0  0  0  0  0  0  0
   16.5600  -31.7680   -2.8320 C   0  0  0  0  0  0  0  0  0  0  0  0
   25.9290  -31.7920   -0.6500 C   0  0  0  0  0  0  0  0  0  0  0  0
   26.1490  -31.0900    0.5150 C   0  0  0  0  0  0  0  0  0  0  0  0
   20.2190  -26.7350   -1.0880 C   0  0  0  0  0  0  0  0  0  0  0  0
   25.0190  -31.3040   -1.6220 C   0  0  0  0  0  0  0  0  0  0  0  0
   25.4670  -29.8950    0.7440 C   0  0  0  0  0  0  0  0  0  0  0  0
   19.5120  -27.8360   -1.5070 C   0  0  0  0  0  0  0  0  0  0  0  0
   15.4490  -27.7420   -2.8530 C   0  0  0  0  0  0  0  0  0  0  0  0
   24.7550  -26.9260   -0.1140 C   0  0  0  0  0  0  0  0  0  0  0  0
   15.8280  -29.7440   -4.3180 C   0  0  0  0  0  0  0  0  0  0  0  0
   17.6400  -28.7370   -2.8830 C   0  0  0  0  0  0  0  0  0  0  0  0
   16.4650  -33.9390   -3.8140 C   0  0  0  0  0  0  0  0  0  0  0  0
   21.5530  -26.9550   -0.3260 C   0  0  0  0  0  0  0  0  0  0  0  0
   15.8310  -32.0740   -5.1140 C   0  0  0  0  0  0  0  0  0  0  0  0
   15.8850  -26.7550   -1.9170 C   0  0  0  0  0  0  0  0  0  0  0  0
   17.2030  -26.7650   -1.4690 C   0  0  0  0  0  0  0  0  0  0  0  0
   24.7470  -25.9260   -1.0460 C   0  0  0  0  0  0  0  0  0  0  0  0
   23.7850  -28.0870   -0.0010 C   0  0  2  0  0  0  0  0  0  0  0  0
   16.3320  -28.7280   -3.3200 C   0  0  0  0  0  0  0  0  0  0  0  0
   16.0930  -31.2070   -4.0490 C   0  0  0  0  0  0  0  0  0  0  0  0
   24.3170  -30.0680   -1.3890 C   0  0  0  0  0  0  0  0  0  0  0  0
   18.0880  -27.7500   -1.9420 C   0  0  0  0  0  0  0  0  0  0  0  0
   24.5270  -29.3880   -0.2610 C   0  0  0  0  0  0  0  0  0  0  0  0
   16.4354  -35.9132   -4.5748 H   0  0  0  0  0  0  0  0  0  0  0  0
   16.9939  -35.7919   -2.9398 H   0  0  0  0  0  0  0  0  0  0  0  0
   15.2058  -30.5641   -6.4566 H   0  0  0  0  0  0  0  0  0  0  0  0
   15.1632  -32.1640   -7.1188 H   0  0  0  0  0  0  0  0  0  0  0  0
   22.1317  -28.0469   -2.6533 H   0  0  0  0  0  0  0  0  0  0  0  0
   13.0955  -25.0796   -1.5238 H   0  0  0  0  0  0  0  0  0  0  0  0
   13.6015  -25.7310   -2.9331 H   0  0  0  0  0  0  0  0  0  0  0  0
   13.1945  -26.7016   -1.6845 H   0  0  0  0  0  0  0  0  0  0  0  0
   17.6402  -23.9552    0.1236 H   0  0  0  0  0  0  0  0  0  0  0  0
   17.5384  -24.1017   -1.4996 H   0  0  0  0  0  0  0  0  0  0  0  0
   16.2380  -24.4279   -0.5672 H   0  0  0  0  0  0  0  0  0  0  0  0
   24.0789  -24.4217    0.2390 H   0  0  0  0  0  0  0  0  0  0  0  0
   25.5317  -24.0917   -0.4296 H   0  0  0  0  0  0  0  0  0  0  0  0
   24.1701  -23.9376   -1.3179 H   0  0  0  0  0  0  0  0  0  0  0  0
   25.5765  -27.1440   -2.5287 H   0  0  0  0  0  0  0  0  0  0  0  0
   25.1271  -25.6765   -3.0864 H   0  0  0  0  0  0  0  0  0  0  0  0
   26.4887  -25.8305   -2.1981 H   0  0  0  0  0  0  0  0  0  0  0  0
   23.8823  -29.0499   -3.0667 H   0  0  0  0  0  0  0  0  0  0  0  0
   22.9117  -30.3360   -2.8009 H   0  0  0  0  0  0  0  0  0  0  0  0
   16.7565  -31.1868   -2.0423 H   0  0  0  0  0  0  0  0  0  0  0  0
   26.4143  -32.6514   -0.8112 H   0  0  0  0  0  0  0  0  0  0  0  0
   26.7958  -31.4363    1.1945 H   0  0  0  0  0  0  0  0  0  0  0  0
   19.8812  -25.8116   -1.2701 H   0  0  0  0  0  0  0  0  0  0  0  0
   24.8651  -31.8165   -2.4668 H   0  0  0  0  0  0  0  0  0  0  0  0
   25.6186  -29.3855    1.5910 H   0  0  0  0  0  0  0  0  0  0  0  0
   19.9680  -28.7259   -1.5208 H   0  0  0  0  0  0  0  0  0  0  0  0
   14.5038  -27.7303   -3.1793 H   0  0  0  0  0  0  0  0  0  0  0  0
   24.6951  -26.4558    0.7665 H   0  0  0  0  0  0  0  0  0  0  0  0
   25.6551  -27.3523   -0.2037 H   0  0  0  0  0  0  0  0  0  0  0  0
   16.2458  -29.5250   -5.1997 H   0  0  0  0  0  0  0  0  0  0  0  0
   14.8366  -29.6298   -4.3814 H   0  0  0  0  0  0  0  0  0  0  0  0
   18.2759  -29.4306   -3.2214 H   0  0  0  0  0  0  0  0  0  0  0  0
   23.8264  -26.0592   -1.4130 H   0  0  0  0  0  0  0  0  0  0  0  0
   23.4967  -28.1171    0.9561 H   0  0  0  0  0  0  0  0  0  0  0  0
  1 27  2  0  0  0  0
  2 10  1  0  0  0  0
  2 29  1  0  0  0  0
  3 11  1  0  0  0  0
  3 30  1  0  0  0  0
  4 26  1  0  0  0  0
  5 28  1  0  0  0  0
  6  9  1  0  0  0  0
  6 14  1  0  0  0  0
  7 15  1  0  0  0  0
  7 26  2  0  0  0  0
  8 26  1  0  0  0  0
  8 28  2  0  0  0  0
  9 27  1  0  0  0  0
  9 32  1  0  0  0  0
 12 31  1  0  0  0  0
 13 31  1  0  0  0  0
 14 35  1  0  0  0  0
 15 34  2  0  0  0  0
 16 17  2  0  0  0  0
 16 19  1  0  0  0  0
 17 20  1  0  0  0  0
 18 21  2  0  0  0  0
 18 27  1  0  0  0  0
 19 35  2  0  0  0  0
 20 37  2  0  0  0  0
 21 36  1  0  0  0  0
 22 29  1  0  0  0  0
 22 33  2  0  0  0  0
 23 31  1  0  0  0  0
 23 32  1  0  0  0  0
 24 33  1  0  0  0  0
 24 34  1  0  0  0  0
 25 33  1  0  0  0  0
 25 36  2  0  0  0  0
 28 34  1  0  0  0  0
 29 30  2  0  0  0  0
 30 36  1  0  0  0  0
 32 37  1  0  0  0  0
 35 37  1  0  0  0  0
  4 38  1  0  0  0  0
  4 39  1  0  0  0  0
  5 40  1  0  0  0  0
  5 41  1  0  0  0  0
  6 42  1  0  0  0  0
 10 43  1  0  0  0  0
 10 44  1  0  0  0  0
 10 45  1  0  0  0  0
 11 46  1  0  0  0  0
 11 47  1  0  0  0  0
 11 48  1  0  0  0  0
 12 49  1  0  0  0  0
 12 50  1  0  0  0  0
 12 51  1  0  0  0  0
 13 52  1  0  0  0  0
 13 53  1  0  0  0  0
 13 54  1  0  0  0  0
 14 55  1  0  0  0  0
 14 56  1  0  0  0  0
 15 57  1  0  0  0  0
 16 58  1  0  0  0  0
 17 59  1  0  0  0  0
 18 60  1  0  0  0  0
 19 61  1  0  0  0  0
 20 62  1  0  0  0  0
 21 63  1  0  0  0  0
 22 64  1  0  0  0  0
 23 65  1  0  0  0  0
 23 66  1  0  0  0  0
 24 67  1  0  0  0  0
 24 68  1  0  0  0  0
 25 69  1  0  0  0  0
 31 70  1  0  0  0  0
 32 71  1  0  0  0  0
M  END
$$$$
CL_A_203
  unicon  05052617403D 1   1.00000     0.00000     0
unicon 1.5.0   
  1  0  0  0  0  0            999 V2000
   12.3540  -22.7780   -9.5440 Cl  0  5  0  0  0  0  0  0  0  0  0  0
M  CHG  1   1  -1
M  END
$$$$
53I_H_201
  unicon  05052617403D 1   1.00000     0.00000     0
unicon 1.5.0   
 69 72  0  0  0  0            999 V2000
   23.8600    0.9230   40.5580 O   0  0  0  0  0  0  0  0  0  0  0  0
   24.4710   -6.1220   42.5610 O   0  0  0  0  0  0  0  0  0  0  0  0
   24.9180   -3.7140   41.3210 O   0  0  0  0  0  0  0  0  0  0  0  0
   15.3450   -2.8370   45.0840 N   0  0  0  0  0  0  0  0  0  0  0  0
   19.1760   -4.3540   47.5610 N   0  0  0  0  0  0  0  0  0  0  0  0
   21.8970    2.3390   43.1770 N   0  0  0  0  0  0  0  0  0  0  0  0
   17.5270   -2.9250   44.0000 N   0  0  0  0  0  0  0  0  0  0  0  0
   17.3030   -3.5650   46.2500 N   0  0  0  0  0  0  0  0  0  0  0  0
   22.5740    2.2680   42.0000 N   0  0  0  0  0  0  0  0  0  0  0  0
   24.4850   -7.3270   43.3200 C   0  0  0  0  0  0  0  0  0  0  0  0
   26.2420   -3.6880   41.7070 C   0  0  0  0  0  0  0  0  0  0  0  0
   26.2270    4.9130   41.7570 C   0  0  0  0  0  0  0  0  0  0  0  0
   24.1810    4.6430   43.3720 C   0  0  0  0  0  0  0  0  0  0  0  0
   21.0840    3.4630   43.4410 C   0  0  0  0  0  0  0  0  0  0  0  0
   18.9000   -3.2030   44.0150 C   0  0  0  0  0  0  0  0  0  0  0  0
   19.4620    6.2790   41.4500 C   0  0  0  0  0  0  0  0  0  0  0  0
   20.2040    6.2480   40.2910 C   0  0  0  0  0  0  0  0  0  0  0  0
   23.1840   -0.2000   42.5790 C   0  0  0  0  0  0  0  0  0  0  0  0
   19.7410    5.3720   42.4960 C   0  0  0  0  0  0  0  0  0  0  0  0
   21.2330    5.3270   40.1490 C   0  0  0  0  0  0  0  0  0  0  0  0
   23.4670   -1.3980   41.9660 C   0  0  0  0  0  0  0  0  0  0  0  0
   22.6950   -5.0650   43.9750 C   0  0  0  0  0  0  0  0  0  0  0  0
   24.0030    4.0270   40.9600 C   0  0  0  0  0  0  0  0  0  0  0  0
   20.9170   -4.0420   45.4360 C   0  0  0  0  0  0  0  0  0  0  0  0
   22.1790   -2.7150   43.6950 C   0  0  0  0  0  0  0  0  0  0  0  0
   16.7580   -3.1150   45.0870 C   0  0  0  0  0  0  0  0  0  0  0  0
   23.2400    1.0200   41.6360 C   0  0  0  0  0  0  0  0  0  0  0  0
   18.6340   -3.8550   46.3330 C   0  0  0  0  0  0  0  0  0  0  0  0
   23.7070   -5.0000   42.9570 C   0  0  0  0  0  0  0  0  0  0  0  0
   23.9290   -3.7960   42.3250 C   0  0  0  0  0  0  0  0  0  0  0  0
   24.8080    4.3890   41.9990 C   0  0  0  0  0  0  0  0  0  0  0  0
   22.6370    3.3760   41.0530 C   0  0  2  0  0  0  0  0  0  0  0  0
   21.9390   -3.9270   44.3260 C   0  0  0  0  0  0  0  0  0  0  0  0
   19.4710   -3.6710   45.2190 C   0  0  0  0  0  0  0  0  0  0  0  0
   20.8020    4.4100   42.3500 C   0  0  0  0  0  0  0  0  0  0  0  0
   23.1890   -2.6670   42.6760 C   0  0  0  0  0  0  0  0  0  0  0  0
   21.5240    4.3900   41.2340 C   0  0  0  0  0  0  0  0  0  0  0  0
   14.8036   -2.9900   45.9107 H   0  0  0  0  0  0  0  0  0  0  0  0
   14.9053   -2.4909   44.2552 H   0  0  0  0  0  0  0  0  0  0  0  0
   20.1506   -4.5680   47.6270 H   0  0  0  0  0  0  0  0  0  0  0  0
   18.5799   -4.4885   48.3526 H   0  0  0  0  0  0  0  0  0  0  0  0
   22.5778    2.2934   43.9081 H   0  0  0  0  0  0  0  0  0  0  0  0
   25.0821   -7.9944   42.8749 H   0  0  0  0  0  0  0  0  0  0  0  0
   24.8255   -7.1370   44.2408 H   0  0  0  0  0  0  0  0  0  0  0  0
   23.5572   -7.6957   43.3772 H   0  0  0  0  0  0  0  0  0  0  0  0
   26.8245   -3.6291   40.8963 H   0  0  0  0  0  0  0  0  0  0  0  0
   26.4032   -2.8930   42.2917 H   0  0  0  0  0  0  0  0  0  0  0  0
   26.4582   -4.5231   42.2128 H   0  0  0  0  0  0  0  0  0  0  0  0
   26.5139    4.6813   40.8275 H   0  0  0  0  0  0  0  0  0  0  0  0
   26.2396    5.9063   41.8719 H   0  0  0  0  0  0  0  0  0  0  0  0
   26.8538    4.4935   42.4137 H   0  0  0  0  0  0  0  0  0  0  0  0
   23.2609    4.2521   43.3957 H   0  0  0  0  0  0  0  0  0  0  0  0
   24.7433    4.2150   44.0796 H   0  0  0  0  0  0  0  0  0  0  0  0
   24.1292    5.6278   43.5378 H   0  0  0  0  0  0  0  0  0  0  0  0
   21.5284    3.9813   44.1717 H   0  0  0  0  0  0  0  0  0  0  0  0
   20.2031    3.1182   43.7651 H   0  0  0  0  0  0  0  0  0  0  0  0
   19.4598   -3.0738   43.1965 H   0  0  0  0  0  0  0  0  0  0  0  0
   18.7235    6.9455   41.5516 H   0  0  0  0  0  0  0  0  0  0  0  0
   20.0017    6.8893   39.5509 H   0  0  0  0  0  0  0  0  0  0  0  0
   22.9613   -0.1260   43.5511 H   0  0  0  0  0  0  0  0  0  0  0  0
   19.2017    5.3980   43.3377 H   0  0  0  0  0  0  0  0  0  0  0  0
   21.7734    5.3042   39.3079 H   0  0  0  0  0  0  0  0  0  0  0  0
   23.8584   -1.4119   41.0459 H   0  0  0  0  0  0  0  0  0  0  0  0
   22.5237   -5.9321   44.4428 H   0  0  0  0  0  0  0  0  0  0  0  0
   24.3499    4.2101   40.0401 H   0  0  0  0  0  0  0  0  0  0  0  0
   21.2468   -3.4656   46.1837 H   0  0  0  0  0  0  0  0  0  0  0  0
   20.9220   -4.9991   45.7258 H   0  0  0  0  0  0  0  0  0  0  0  0
   21.6618   -1.8960   43.9436 H   0  0  0  0  0  0  0  0  0  0  0  0
   22.4777    2.9659   40.1550 H   0  0  0  0  0  0  0  0  0  0  0  0
  1 27  2  0  0  0  0
  2 10  1  0  0  0  0
  2 29  1  0  0  0  0
  3 11  1  0  0  0  0
  3 30  1  0  0  0  0
  4 26  1  0  0  0  0
  5 28  1  0  0  0  0
  6  9  1  0  0  0  0
  6 14  1  0  0  0  0
  7 15  1  0  0  0  0
  7 26  2  0  0  0  0
  8 26  1  0  0  0  0
  8 28  2  0  0  0  0
  9 27  1  0  0  0  0
  9 32  1  0  0  0  0
 12 31  1  0  0  0  0
 13 31  1  0  0  0  0
 14 35  1  0  0  0  0
 15 34  2  0  0  0  0
 16 17  2  0  0  0  0
 16 19  1  0  0  0  0
 17 20  1  0  0  0  0
 18 21  2  0  0  0  0
 18 27  1  0  0  0  0
 19 35  2  0  0  0  0
 20 37  2  0  0  0  0
 21 36  1  0  0  0  0
 22 29  1  0  0  0  0
 22 33  2  0  0  0  0
 23 31  2  0  0  0  0
 23 32  1  0  0  0  0
 24 33  1  0  0  0  0
 24 34  1  0  0  0  0
 25 33  1  0  0  0  0
 25 36  2  0  0  0  0
 28 34  1  0  0  0  0
 29 30  2  0  0  0  0
 30 36  1  0  0  0  0
 32 37  1  0  0  0  0
 35 37  1  0  0  0  0
  4 38  1  0  0  0  0
  4 39  1  0  0  0  0
  5 40  1  0  0  0  0
  5 41  1  0  0  0  0
  6 42  1  0  0  0  0
 10 43  1  0  0  0  0
 10 44  1  0  0  0  0
 10 45  1  0  0  0  0
 11 46  1  0  0  0  0
 11 47  1  0  0  0  0
 11 48  1  0  0  0  0
 12 49  1  0  0  0  0
 12 50  1  0  0  0  0
 12 51  1  0  0  0  0
 13 52  1  0  0  0  0
 13 53  1  0  0  0  0
 13 54  1  0  0  0  0
 14 55  1  0  0  0  0
 14 56  1  0  0  0  0
 15 57  1  0  0  0  0
 16 58  1  0  0  0  0
 17 59  1  0  0  0  0
 18 60  1  0  0  0  0
 19 61  1  0  0  0  0
 20 62  1  0  0  0  0
 21 63  1  0  0  0  0
 22 64  1  0  0  0  0
 23 65  1  0  0  0  0
 24 66  1  0  0  0  0
 24 67  1  0  0  0  0
 25 68  1  0  0  0  0
 32 69  1  0  0  0  0
M  END
$$$$
CL_H_203
  unicon  05052617403D 1   1.00000     0.00000     0
unicon 1.5.0   
  1  0  0  0  0  0            999 V2000
   27.8550   -7.4920   50.4370 Cl  0  5  0  0  0  0  0  0  0  0  0  0
M  CHG  1   1  -1
M  END
$$$$
53I_C_202
  unicon  05052617403D 1   1.00000     0.00000     0
unicon 1.5.0   
 69 72  0  0  0  0            999 V2000
   12.1560  -30.9010   42.0980 O   0  0  0  0  0  0  0  0  0  0  0  0
   11.8520  -38.0250   40.5120 O   0  0  0  0  0  0  0  0  0  0  0  0
   11.8500  -35.3820   41.2550 O   0  0  0  0  0  0  0  0  0  0  0  0
   21.3560  -36.4700   38.3820 N   0  0  0  0  0  0  0  0  0  0  0  0
   17.6540  -37.7020   35.5070 N   0  0  0  0  0  0  0  0  0  0  0  0
   14.7940  -30.9340   39.6380 N   0  0  0  0  0  0  0  0  0  0  0  0
   19.0910  -36.4010   39.2520 N   0  0  0  0  0  0  0  0  0  0  0  0
   19.4730  -37.0460   37.0220 N   0  0  0  0  0  0  0  0  0  0  0  0
   13.8830  -30.4970   40.5490 N   0  0  0  0  0  0  0  0  0  0  0  0
   11.5430  -39.2790   39.9290 C   0  0  0  0  0  0  0  0  0  0  0  0
   10.5110  -35.4110   40.9350 C   0  0  0  0  0  0  0  0  0  0  0  0
   11.2400  -27.7250   41.0730 C   0  0  0  0  0  0  0  0  0  0  0  0
   11.4750  -26.9600   38.5580 C   0  0  0  0  0  0  0  0  0  0  0  0
   15.9590  -30.1430   39.4540 C   0  0  0  0  0  0  0  0  0  0  0  0
   17.7150  -36.5800   39.0850 C   0  0  0  0  0  0  0  0  0  0  0  0
   17.7980  -27.5510   41.6070 C   0  0  0  0  0  0  0  0  0  0  0  0
   16.7450  -27.0080   42.3120 C   0  0  0  0  0  0  0  0  0  0  0  0
   12.9410  -32.9360   41.0380 C   0  0  0  0  0  0  0  0  0  0  0  0
   17.5680  -28.5820   40.6590 C   0  0  0  0  0  0  0  0  0  0  0  0
   15.4520  -27.4730   42.0880 C   0  0  0  0  0  0  0  0  0  0  0  0
   13.8190  -33.5100   40.1420 C   0  0  0  0  0  0  0  0  0  0  0  0
   13.7900  -37.6620   39.0180 C   0  0  0  0  0  0  0  0  0  0  0  0
   13.2360  -28.3480   39.6520 C   0  0  0  0  0  0  0  0  0  0  0  0
   15.7700  -37.2730   37.4860 C   0  0  0  0  0  0  0  0  0  0  0  0
   14.7450  -35.4530   38.8530 C   0  0  0  0  0  0  0  0  0  0  0  0
   19.9360  -36.6410   38.2370 C   0  0  0  0  0  0  0  0  0  0  0  0
   12.9570  -31.3980   41.2720 C   0  0  0  0  0  0  0  0  0  0  0  0
   18.1380  -37.2540   36.7970 C   0  0  0  0  0  0  0  0  0  0  0  0
   12.8160  -37.1710   39.9520 C   0  0  0  0  0  0  0  0  0  0  0  0
   12.8160  -35.8370   40.3250 C   0  0  0  0  0  0  0  0  0  0  0  0
   12.0760  -27.6480   39.7890 C   0  0  0  0  0  0  0  0  0  0  0  0
   13.8330  -29.0750   40.8310 C   0  0  2  0  0  0  0  0  0  0  0  0
   14.7500  -36.7850   38.4860 C   0  0  0  0  0  0  0  0  0  0  0  0
   17.2250  -37.0120   37.8210 C   0  0  0  0  0  0  0  0  0  0  0  0
   16.2330  -29.0690   40.4270 C   0  0  0  0  0  0  0  0  0  0  0  0
   13.7730  -34.9620   39.7890 C   0  0  0  0  0  0  0  0  0  0  0  0
   15.2210  -28.5400   41.1050 C   0  0  0  0  0  0  0  0  0  0  0  0
   21.9634  -36.6558   37.6097 H   0  0  0  0  0  0  0  0  0  0  0  0
   21.7363  -36.1653   39.2552 H   0  0  0  0  0  0  0  0  0  0  0  0
   16.6752  -37.8479   35.3634 H   0  0  0  0  0  0  0  0  0  0  0  0
   18.2987  -37.8653   34.7602 H   0  0  0  0  0  0  0  0  0  0  0  0
   14.3299  -30.9960   38.7544 H   0  0  0  0  0  0  0  0  0  0  0  0
   10.8370  -39.7340   40.4717 H   0  0  0  0  0  0  0  0  0  0  0  0
   11.2089  -39.1399   38.9968 H   0  0  0  0  0  0  0  0  0  0  0  0
   12.3650  -39.8480   39.9071 H   0  0  0  0  0  0  0  0  0  0  0  0
    9.9771  -35.0557   41.7023 H   0  0  0  0  0  0  0  0  0  0  0  0
   10.3492  -34.8456   40.1262 H   0  0  0  0  0  0  0  0  0  0  0  0
   10.2342  -36.3528   40.7441 H   0  0  0  0  0  0  0  0  0  0  0  0
   11.7618  -28.1984   41.7826 H   0  0  0  0  0  0  0  0  0  0  0  0
   11.0189  -26.8003   41.3828 H   0  0  0  0  0  0  0  0  0  0  0  0
   10.3943  -28.2265   40.8906 H   0  0  0  0  0  0  0  0  0  0  0  0
   12.1331  -26.9886   37.8056 H   0  0  0  0  0  0  0  0  0  0  0  0
   10.6376  -27.4345   38.2866 H   0  0  0  0  0  0  0  0  0  0  0  0
   11.2622  -26.0082   38.7788 H   0  0  0  0  0  0  0  0  0  0  0  0
   15.8879  -29.7155   38.5528 H   0  0  0  0  0  0  0  0  0  0  0  0
   16.7435  -30.7629   39.4679 H   0  0  0  0  0  0  0  0  0  0  0  0
   17.0848  -36.4072   39.8419 H   0  0  0  0  0  0  0  0  0  0  0  0
   18.7274  -27.2172   41.7642 H   0  0  0  0  0  0  0  0  0  0  0  0
   16.9092  -26.2834   42.9813 H   0  0  0  0  0  0  0  0  0  0  0  0
   12.2927  -33.5099   41.5383 H   0  0  0  0  0  0  0  0  0  0  0  0
   18.3358  -28.9715   40.1504 H   0  0  0  0  0  0  0  0  0  0  0  0
   14.6834  -27.0821   42.5944 H   0  0  0  0  0  0  0  0  0  0  0  0
   14.5130  -32.9325   39.7120 H   0  0  0  0  0  0  0  0  0  0  0  0
   13.7850  -38.6246   38.7473 H   0  0  0  0  0  0  0  0  0  0  0  0
   13.6949  -28.3802   38.7641 H   0  0  0  0  0  0  0  0  0  0  0  0
   15.5751  -36.8283   36.6118 H   0  0  0  0  0  0  0  0  0  0  0  0
   15.6529  -38.2615   37.3905 H   0  0  0  0  0  0  0  0  0  0  0  0
   15.4218  -34.8276   38.4648 H   0  0  0  0  0  0  0  0  0  0  0  0
   13.2587  -28.9211   41.6350 H   0  0  0  0  0  0  0  0  0  0  0  0
  1 27  2  0  0  0  0
  2 10  1  0  0  0  0
  2 29  1  0  0  0  0
  3 11  1  0  0  0  0
  3 30  1  0  0  0  0
  4 26  1  0  0  0  0
  5 28  1  0  0  0  0
  6  9  1  0  0  0  0
  6 14  1  0  0  0  0
  7 15  1  0  0  0  0
  7 26  2  0  0  0  0
  8 26  1  0  0  0  0
  8 28  2  0  0  0  0
  9 27  1  0  0  0  0
  9 32  1  0  0  0  0
 12 31  1  0  0  0  0
 13 31  1  0  0  0  0
 14 35  1  0  0  0  0
 15 34  2  0  0  0  0
 16 17  2  0  0  0  0
 16 19  1  0  0  0  0
 17 20  1  0  0  0  0
 18 21  2  0  0  0  0
 18 27  1  0  0  0  0
 19 35  2  0  0  0  0
 20 37  2  0  0  0  0
 21 36  1  0  0  0  0
 22 29  1  0  0  0  0
 22 33  2  0  0  0  0
 23 31  2  0  0  0  0
 23 32  1  0  0  0  0
 24 33  1  0  0  0  0
 24 34  1  0  0  0  0
 25 33  1  0  0  0  0
 25 36  2  0  0  0  0
 28 34  1  0  0  0  0
 29 30  2  0  0  0  0
 30 36  1  0  0  0  0
 32 37  1  0  0  0  0
 35 37  1  0  0  0  0
  4 38  1  0  0  0  0
  4 39  1  0  0  0  0
  5 40  1  0  0  0  0
  5 41  1  0  0  0  0
  6 42  1  0  0  0  0
 10 43  1  0  0  0  0
 10 44  1  0  0  0  0
 10 45  1  0  0  0  0
 11 46  1  0  0  0  0
 11 47  1  0  0  0  0
 11 48  1  0  0  0  0
 12 49  1  0  0  0  0
 12 50  1  0  0  0  0
 12 51  1  0  0  0  0
 13 52  1  0  0  0  0
 13 53  1  0  0  0  0
 13 54  1  0  0  0  0
 14 55  1  0  0  0  0
 14 56  1  0  0  0  0
 15 57  1  0  0  0  0
 16 58  1  0  0  0  0
 17 59  1  0  0  0  0
 18 60  1  0  0  0  0
 19 61  1  0  0  0  0
 20 62  1  0  0  0  0
 21 63  1  0  0  0  0
 22 64  1  0  0  0  0
 23 65  1  0  0  0  0
 24 66  1  0  0  0  0
 24 67  1  0  0  0  0
 25 68  1  0  0  0  0
 32 69  1  0  0  0  0
M  END
$$$$
CL_C_203
  unicon  05052617403D 1   1.00000     0.00000     0
unicon 1.5.0   
  1  0  0  0  0  0            999 V2000
    9.0180  -40.5650   32.5470 Cl  0  5  0  0  0  0  0  0  0  0  0  0
M  CHG  1   1  -1
M  END
$$$$
53I_B_202
  unicon  05052617403D 1   1.00000     0.00000     0
unicon 1.5.0   
 69 72  0  0  0  0            999 V2000
   17.8910   -8.6030   -1.0070 O   0  0  0  0  0  0  0  0  0  0  0  0
   10.6880   -8.5390    0.8000 O   0  0  0  0  0  0  0  0  0  0  0  0
   13.3050   -8.9060    0.0530 O   0  0  0  0  0  0  0  0  0  0  0  0
   13.2150    0.7920    3.0070 N   0  0  0  0  0  0  0  0  0  0  0  0
   11.6820   -2.8720    5.7870 N   0  0  0  0  0  0  0  0  0  0  0  0
   18.0670   -5.8840    1.3650 N   0  0  0  0  0  0  0  0  0  0  0  0
   13.0360   -1.4420    2.0700 N   0  0  0  0  0  0  0  0  0  0  0  0
   12.4620   -1.0730    4.3200 N   0  0  0  0  0  0  0  0  0  0  0  0
   18.4200   -6.8470    0.4720 N   0  0  0  0  0  0  0  0  0  0  0  0
    9.3760   -8.5130    1.3610 C   0  0  0  0  0  0  0  0  0  0  0  0
   13.1240  -10.2120    0.4670 C   0  0  0  0  0  0  0  0  0  0  0  0
   21.1450   -9.7250   -0.1340 C   0  0  0  0  0  0  0  0  0  0  0  0
   22.0610   -9.3670    2.3120 C   0  0  0  0  0  0  0  0  0  0  0  0
   19.0450   -4.9060    1.7080 C   0  0  0  0  0  0  0  0  0  0  0  0
   12.7350   -2.8060    2.1900 C   0  0  0  0  0  0  0  0  0  0  0  0
   21.9040   -3.2770   -0.2770 C   0  0  0  0  0  0  0  0  0  0  0  0
   22.2980   -4.3280   -1.0720 C   0  0  0  0  0  0  0  0  0  0  0  0
   15.9290   -7.6800    0.0460 C   0  0  0  0  0  0  0  0  0  0  0  0
   20.8420   -3.4290    0.6520 C   0  0  0  0  0  0  0  0  0  0  0  0
   21.6440   -5.5500   -0.9520 C   0  0  0  0  0  0  0  0  0  0  0  0
   15.4500   -7.1140    1.1970 C   0  0  0  0  0  0  0  0  0  0  0  0
   11.2990   -6.6610    2.2390 C   0  0  0  0  0  0  0  0  0  0  0  0
   20.4890   -7.7520    1.2830 C   0  0  0  0  0  0  0  0  0  0  0  0
   11.8850   -4.7330    3.7520 C   0  0  0  0  0  0  0  0  0  0  0  0
   13.6020   -5.9920    2.4170 C   0  0  0  0  0  0  0  0  0  0  0  0
   12.8970   -0.6080    3.1140 C   0  0  0  0  0  0  0  0  0  0  0  0
   17.4570   -7.7470   -0.1990 C   0  0  0  0  0  0  0  0  0  0  0  0
   12.1460   -2.3980    4.5080 C   0  0  0  0  0  0  0  0  0  0  0  0
   11.6780   -7.6990    1.3260 C   0  0  0  0  0  0  0  0  0  0  0  0
   13.0030   -7.8650    0.9560 C   0  0  0  0  0  0  0  0  0  0  0  0
   21.3120   -8.8190    1.0890 C   0  0  0  0  0  0  0  0  0  0  0  0
   19.8240   -7.0130    0.1550 C   0  0  2  0  0  0  0  0  0  0  0  0
   12.2790   -5.8120    2.7700 C   0  0  0  0  0  0  0  0  0  0  0  0
   12.2780   -3.3020    3.4440 C   0  0  0  0  0  0  0  0  0  0  0  0
   20.1620   -4.6920    0.7680 C   0  0  0  0  0  0  0  0  0  0  0  0
   13.9880   -7.0180    1.5000 C   0  0  0  0  0  0  0  0  0  0  0  0
   20.5430   -5.6980    0.0010 C   0  0  0  0  0  0  0  0  0  0  0  0
   13.1029    1.3922    3.7990 H   0  0  0  0  0  0  0  0  0  0  0  0
   13.5480    1.1643    2.1407 H   0  0  0  0  0  0  0  0  0  0  0  0
   11.4556   -3.8382    5.9100 H   0  0  0  0  0  0  0  0  0  0  0  0
   11.5863   -2.2347    6.5517 H   0  0  0  0  0  0  0  0  0  0  0  0
   17.7972   -6.3453    2.2102 H   0  0  0  0  0  0  0  0  0  0  0  0
    8.7934   -9.1656    0.8766 H   0  0  0  0  0  0  0  0  0  0  0  0
    9.4222   -8.7615    2.3285 H   0  0  0  0  0  0  0  0  0  0  0  0
    8.9931   -7.5936    1.2709 H   0  0  0  0  0  0  0  0  0  0  0  0
   13.3772  -10.8345   -0.2735 H   0  0  0  0  0  0  0  0  0  0  0  0
   13.6995  -10.3916    1.2649 H   0  0  0  0  0  0  0  0  0  0  0  0
   12.1644  -10.3549    0.7092 H   0  0  0  0  0  0  0  0  0  0  0  0
   20.6409   -9.2352   -0.8453 H   0  0  0  0  0  0  0  0  0  0  0  0
   22.0458   -9.9842   -0.4823 H   0  0  0  0  0  0  0  0  0  0  0  0
   20.6392  -10.5473    0.1269 H   0  0  0  0  0  0  0  0  0  0  0  0
   22.0902   -8.6675    3.0260 H   0  0  0  0  0  0  0  0  0  0  0  0
   21.5870  -10.1768    2.6579 H   0  0  0  0  0  0  0  0  0  0  0  0
   22.9936   -9.6137    2.0487 H   0  0  0  0  0  0  0  0  0  0  0  0
   19.4411   -5.1752    2.5858 H   0  0  0  0  0  0  0  0  0  0  0  0
   18.5699   -4.0321    1.8107 H   0  0  0  0  0  0  0  0  0  0  0  0
   12.8395   -3.4203    1.4079 H   0  0  0  0  0  0  0  0  0  0  0  0
   22.3710   -2.3961   -0.3545 H   0  0  0  0  0  0  0  0  0  0  0  0
   23.0447   -4.2152   -1.7276 H   0  0  0  0  0  0  0  0  0  0  0  0
   15.2949   -8.0487   -0.6338 H   0  0  0  0  0  0  0  0  0  0  0  0
   20.5661   -2.6582    1.2262 H   0  0  0  0  0  0  0  0  0  0  0  0
   21.9257   -6.3262   -1.5161 H   0  0  0  0  0  0  0  0  0  0  0  0
   16.1031   -6.7504    1.8613 H   0  0  0  0  0  0  0  0  0  0  0  0
   10.3397   -6.5433    2.4957 H   0  0  0  0  0  0  0  0  0  0  0  0
   20.3188   -7.4454    2.2195 H   0  0  0  0  0  0  0  0  0  0  0  0
   12.2958   -4.9698    4.6324 H   0  0  0  0  0  0  0  0  0  0  0  0
   10.8885   -4.7555    3.8323 H   0  0  0  0  0  0  0  0  0  0  0  0
   14.3014   -5.3946    2.8095 H   0  0  0  0  0  0  0  0  0  0  0  0
   19.9143   -7.5424   -0.6886 H   0  0  0  0  0  0  0  0  0  0  0  0
  1 27  2  0  0  0  0
  2 10  1  0  0  0  0
  2 29  1  0  0  0  0
  3 11  1  0  0  0  0
  3 30  1  0  0  0  0
  4 26  1  0  0  0  0
  5 28  1  0  0  0  0
  6  9  1  0  0  0  0
  6 14  1  0  0  0  0
  7 15  1  0  0  0  0
  7 26  2  0  0  0  0
  8 26  1  0  0  0  0
  8 28  2  0  0  0  0
  9 27  1  0  0  0  0
  9 32  1  0  0  0  0
 12 31  1  0  0  0  0
 13 31  1  0  0  0  0
 14 35  1  0  0  0  0
 15 34  2  0  0  0  0
 16 17  2  0  0  0  0
 16 19  1  0  0  0  0
 17 20  1  0  0  0  0
 18 21  2  0  0  0  0
 18 27  1  0  0  0  0
 19 35  2  0  0  0  0
 20 37  2  0  0  0  0
 21 36  1  0  0  0  0
 22 29  1  0  0  0  0
 22 33  2  0  0  0  0
 23 31  2  0  0  0  0
 23 32  1  0  0  0  0
 24 33  1  0  0  0  0
 24 34  1  0  0  0  0
 25 33  1  0  0  0  0
 25 36  2  0  0  0  0
 28 34  1  0  0  0  0
 29 30  2  0  0  0  0
 30 36  1  0  0  0  0
 32 37  1  0  0  0  0
 35 37  1  0  0  0  0
  4 38  1  0  0  0  0
  4 39  1  0  0  0  0
  5 40  1  0  0  0  0
  5 41  1  0  0  0  0
  6 42  1  0  0  0  0
 10 43  1  0  0  0  0
 10 44  1  0  0  0  0
 10 45  1  0  0  0  0
 11 46  1  0  0  0  0
 11 47  1  0  0  0  0
 11 48  1  0  0  0  0
 12 49  1  0  0  0  0
 12 50  1  0  0  0  0
 12 51  1  0  0  0  0
 13 52  1  0  0  0  0
 13 53  1  0  0  0  0
 13 54  1  0  0  0  0
 14 55  1  0  0  0  0
 14 56  1  0  0  0  0
 15 57  1  0  0  0  0
 16 58  1  0  0  0  0
 17 59  1  0  0  0  0
 18 60  1  0  0  0  0
 19 61  1  0  0  0  0
 20 62  1  0  0  0  0
 21 63  1  0  0  0  0
 22 64  1  0  0  0  0
 23 65  1  0  0  0  0
 24 66  1  0  0  0  0
 24 67  1  0  0  0  0
 25 68  1  0  0  0  0
 32 69  1  0  0  0  0
M  END
$$$$
CL_B_203
  unicon  05052617403D 1   1.00000     0.00000     0
unicon 1.5.0   
  1  0  0  0  0  0            999 V2000
    8.3990  -11.5490    9.1270 Cl  0  5  0  0  0  0  0  0  0  0  0  0
M  CHG  1   1  -1
M  END
$$$$
53I_G_201
  unicon  05052617403D 1   1.00000     0.00000     0
unicon 1.5.0   
 69 72  0  0  0  0            999 V2000
  -16.7730    7.4030    1.1400 O   0  0  0  0  0  0  0  0  0  0  0  0
  -23.9680    7.1210   -0.2530 O   0  0  0  0  0  0  0  0  0  0  0  0
  -21.5550    7.7140    0.9480 O   0  0  0  0  0  0  0  0  0  0  0  0
  -20.0840   -1.8280   -2.4870 N   0  0  0  0  0  0  0  0  0  0  0  0
  -21.9070    1.7450   -5.1510 N   0  0  0  0  0  0  0  0  0  0  0  0
  -15.3020    4.8190   -0.8240 N   0  0  0  0  0  0  0  0  0  0  0  0
  -20.3590    0.3540   -1.5090 N   0  0  0  0  0  0  0  0  0  0  0  0
  -20.9680   -0.0050   -3.7390 N   0  0  0  0  0  0  0  0  0  0  0  0
  -15.3910    5.8880    0.0140 N   0  0  0  0  0  0  0  0  0  0  0  0
  -25.2800    6.7190   -0.6140 C   0  0  0  0  0  0  0  0  0  0  0  0
  -21.4930    9.0490    0.6040 C   0  0  0  0  0  0  0  0  0  0  0  0
  -13.3720    9.3960    0.9860 C   0  0  0  0  0  0  0  0  0  0  0  0
  -12.5130    9.4070   -1.5170 C   0  0  0  0  0  0  0  0  0  0  0  0
  -14.0690    4.1250   -0.8700 C   0  0  0  0  0  0  0  0  0  0  0  0
  -20.7590    1.6860   -1.5990 C   0  0  0  0  0  0  0  0  0  0  0  0
  -11.2750    3.5460    1.6590 C   0  0  0  0  0  0  0  0  0  0  0  0
  -11.3190    4.7270    2.3690 C   0  0  0  0  0  0  0  0  0  0  0  0
  -17.9930    5.7710   -0.1700 C   0  0  0  0  0  0  0  0  0  0  0  0
  -12.1700    3.3230    0.5900 C   0  0  0  0  0  0  0  0  0  0  0  0
  -12.2450    5.7100    2.0290 C   0  0  0  0  0  0  0  0  0  0  0  0
  -19.1710    6.3580    0.2440 C   0  0  0  0  0  0  0  0  0  0  0  0
  -22.8670    5.3600   -1.6450 C   0  0  0  0  0  0  0  0  0  0  0  0
  -13.6200    7.3900   -0.5560 C   0  0  0  0  0  0  0  0  0  0  0  0
  -21.7620    3.5870   -3.0870 C   0  0  0  0  0  0  0  0  0  0  0  0
  -20.4840    4.9740   -1.4120 C   0  0  0  0  0  0  0  0  0  0  0  0
  -20.4720   -0.4570   -2.5610 C   0  0  0  0  0  0  0  0  0  0  0  0
  -16.7010    6.4170    0.3800 C   0  0  0  0  0  0  0  0  0  0  0  0
  -21.3830    1.2870   -3.8870 C   0  0  0  0  0  0  0  0  0  0  0  0
  -22.8240    6.3980   -0.6500 C   0  0  0  0  0  0  0  0  0  0  0  0
  -21.6150    6.7050   -0.0510 C   0  0  0  0  0  0  0  0  0  0  0  0
  -13.2360    8.6870   -0.3670 C   0  0  0  0  0  0  0  0  0  0  0  0
  -14.1930    6.5210    0.5340 C   0  0  2  0  0  0  0  0  0  0  0  0
  -21.6950    4.6530   -2.0090 C   0  0  0  0  0  0  0  0  0  0  0  0
  -21.2750    2.1780   -2.8190 C   0  0  0  0  0  0  0  0  0  0  0  0
  -13.1280    4.3380    0.2410 C   0  0  0  0  0  0  0  0  0  0  0  0
  -20.4540    6.0100   -0.4170 C   0  0  0  0  0  0  0  0  0  0  0  0
  -13.1720    5.4770    0.9220 C   0  0  0  0  0  0  0  0  0  0  0  0
  -20.1776   -2.4181   -3.2889 H   0  0  0  0  0  0  0  0  0  0  0  0
  -19.7185   -2.1988   -1.6333 H   0  0  0  0  0  0  0  0  0  0  0  0
  -22.2094    2.6927   -5.2530 H   0  0  0  0  0  0  0  0  0  0  0  0
  -21.9678    1.1147   -5.9250 H   0  0  0  0  0  0  0  0  0  0  0  0
  -15.4960    5.1464   -1.7487 H   0  0  0  0  0  0  0  0  0  0  0  0
  -25.9428    7.3642   -0.2339 H   0  0  0  0  0  0  0  0  0  0  0  0
  -25.3620    6.7051   -1.6105 H   0  0  0  0  0  0  0  0  0  0  0  0
  -25.4599    5.8044   -0.2520 H   0  0  0  0  0  0  0  0  0  0  0  0
  -21.4570    9.6057    1.4339 H   0  0  0  0  0  0  0  0  0  0  0  0
  -20.6731    9.2143    0.0559 H   0  0  0  0  0  0  0  0  0  0  0  0
  -22.3040    9.2944    0.0729 H   0  0  0  0  0  0  0  0  0  0  0  0
  -13.8622    8.8033    1.6251 H   0  0  0  0  0  0  0  0  0  0  0  0
  -12.4625    9.5980    1.3494 H   0  0  0  0  0  0  0  0  0  0  0  0
  -13.8799   10.2490    0.8658 H   0  0  0  0  0  0  0  0  0  0  0  0
  -12.5066    8.8197   -2.3263 H   0  0  0  0  0  0  0  0  0  0  0  0
  -12.9898   10.2603   -1.7281 H   0  0  0  0  0  0  0  0  0  0  0  0
  -11.5723    9.6094   -1.2446 H   0  0  0  0  0  0  0  0  0  0  0  0
  -13.6039    4.3961   -1.7127 H   0  0  0  0  0  0  0  0  0  0  0  0
  -14.2766    3.1474   -0.9035 H   0  0  0  0  0  0  0  0  0  0  0  0
  -20.6814    2.2896   -0.8055 H   0  0  0  0  0  0  0  0  0  0  0  0
  -10.6059    2.8438    1.9024 H   0  0  0  0  0  0  0  0  0  0  0  0
  -10.6859    4.8778    3.1282 H   0  0  0  0  0  0  0  0  0  0  0  0
  -17.9762    4.9817   -0.7838 H   0  0  0  0  0  0  0  0  0  0  0  0
  -12.1382    2.4644    0.0783 H   0  0  0  0  0  0  0  0  0  0  0  0
  -12.2759    6.5699    2.5386 H   0  0  0  0  0  0  0  0  0  0  0  0
  -19.1606    7.0209    0.9927 H   0  0  0  0  0  0  0  0  0  0  0  0
  -23.7360    5.1346   -2.0855 H   0  0  0  0  0  0  0  0  0  0  0  0
  -13.5151    6.9948   -1.4686 H   0  0  0  0  0  0  0  0  0  0  0  0
  -21.2290    3.9302   -3.8604 H   0  0  0  0  0  0  0  0  0  0  0  0
  -22.7231    3.5104   -3.3524 H   0  0  0  0  0  0  0  0  0  0  0  0
  -19.6465    4.4924   -1.6700 H   0  0  0  0  0  0  0  0  0  0  0  0
  -14.4236    7.0820    1.3291 H   0  0  0  0  0  0  0  0  0  0  0  0
  1 27  2  0  0  0  0
  2 10  1  0  0  0  0
  2 29  1  0  0  0  0
  3 11  1  0  0  0  0
  3 30  1  0  0  0  0
  4 26  1  0  0  0  0
  5 28  1  0  0  0  0
  6  9  1  0  0  0  0
  6 14  1  0  0  0  0
  7 15  1  0  0  0  0
  7 26  2  0  0  0  0
  8 26  1  0  0  0  0
  8 28  2  0  0  0  0
  9 27  1  0  0  0  0
  9 32  1  0  0  0  0
 12 31  1  0  0  0  0
 13 31  1  0  0  0  0
 14 35  1  0  0  0  0
 15 34  2  0  0  0  0
 16 17  2  0  0  0  0
 16 19  1  0  0  0  0
 17 20  1  0  0  0  0
 18 21  2  0  0  0  0
 18 27  1  0  0  0  0
 19 35  2  0  0  0  0
 20 37  2  0  0  0  0
 21 36  1  0  0  0  0
 22 29  1  0  0  0  0
 22 33  2  0  0  0  0
 23 31  2  0  0  0  0
 23 32  1  0  0  0  0
 24 33  1  0  0  0  0
 24 34  1  0  0  0  0
 25 33  1  0  0  0  0
 25 36  2  0  0  0  0
 28 34  1  0  0  0  0
 29 30  2  0  0  0  0
 30 36  1  0  0  0  0
 32 37  1  0  0  0  0
 35 37  1  0  0  0  0
  4 38  1  0  0  0  0
  4 39  1  0  0  0  0
  5 40  1  0  0  0  0
  5 41  1  0  0  0  0
  6 42  1  0  0  0  0
 10 43  1  0  0  0  0
 10 44  1  0  0  0  0
 10 45  1  0  0  0  0
 11 46  1  0  0  0  0
 11 47  1  0  0  0  0
 11 48  1  0  0  0  0
 12 49  1  0  0  0  0
 12 50  1  0  0  0  0
 12 51  1  0  0  0  0
 13 52  1  0  0  0  0
 13 53  1  0  0  0  0
 13 54  1  0  0  0  0
 14 55  1  0  0  0  0
 14 56  1  0  0  0  0
 15 57  1  0  0  0  0
 16 58  1  0  0  0  0
 17 59  1  0  0  0  0
 18 60  1  0  0  0  0
 19 61  1  0  0  0  0
 20 62  1  0  0  0  0
 21 63  1  0  0  0  0
 22 64  1  0  0  0  0
 23 65  1  0  0  0  0
 24 66  1  0  0  0  0
 24 67  1  0  0  0  0
 25 68  1  0  0  0  0
 32 69  1  0  0  0  0
M  END
$$$$
CL_G_203
  unicon  05052617403D 1   1.00000     0.00000     0
unicon 1.5.0   
  1  0  0  0  0  0            999 V2000
  -25.9920    9.9860   -8.1120 Cl  0  5  0  0  0  0  0  0  0  0  0  0
M  CHG  1   1  -1
M  END
$$$$
53I_F_201
  unicon  05052617403D 1   1.00000     0.00000     0
unicon 1.5.0   
 69 72  0  0  0  0            999 V2000
  -24.7510    0.0860   43.2500 O   0  0  0  0  0  0  0  0  0  0  0  0
  -24.8110   -7.1780   41.8840 O   0  0  0  0  0  0  0  0  0  0  0  0
  -25.3980   -4.7620   42.9300 O   0  0  0  0  0  0  0  0  0  0  0  0
  -15.7400   -3.6860   39.5960 N   0  0  0  0  0  0  0  0  0  0  0  0
  -19.4040   -5.3290   36.8920 N   0  0  0  0  0  0  0  0  0  0  0  0
  -22.2130    1.3460   41.0720 N   0  0  0  0  0  0  0  0  0  0  0  0
  -17.9510   -3.8450   40.5500 N   0  0  0  0  0  0  0  0  0  0  0  0
  -17.6040   -4.4840   38.3160 N   0  0  0  0  0  0  0  0  0  0  0  0
  -23.1910    1.3260   42.0230 N   0  0  0  0  0  0  0  0  0  0  0  0
  -24.5240   -8.5210   41.5060 C   0  0  0  0  0  0  0  0  0  0  0  0
  -26.7150   -4.7040   42.5280 C   0  0  0  0  0  0  0  0  0  0  0  0
  -26.0560    3.9220   43.9000 C   0  0  0  0  0  0  0  0  0  0  0  0
  -26.7900    4.4490   41.4360 C   0  0  0  0  0  0  0  0  0  0  0  0
  -21.4290    2.5240   40.9500 C   0  0  0  0  0  0  0  0  0  0  0  0
  -19.3010   -4.1750   40.4550 C   0  0  0  0  0  0  0  0  0  0  0  0
  -20.3080    5.2370   43.3970 C   0  0  0  0  0  0  0  0  0  0  0  0
  -21.3710    5.2580   44.2730 C   0  0  0  0  0  0  0  0  0  0  0  0
  -23.4630   -1.2380   41.6730 C   0  0  0  0  0  0  0  0  0  0  0  0
  -20.3020    4.3480   42.2940 C   0  0  0  0  0  0  0  0  0  0  0  0
  -22.4460    4.3960   44.0770 C   0  0  0  0  0  0  0  0  0  0  0  0
  -24.0550   -2.3820   42.1540 C   0  0  0  0  0  0  0  0  0  0  0  0
  -23.0230   -6.1530   40.4310 C   0  0  0  0  0  0  0  0  0  0  0  0
  -24.6710    3.2300   41.8880 C   0  0  0  0  0  0  0  0  0  0  0  0
  -21.2420   -5.0810   38.9660 C   0  0  0  0  0  0  0  0  0  0  0  0
  -22.6520   -3.7580   40.5730 C   0  0  0  0  0  0  0  0  0  0  0  0
  -17.1310   -4.0100   39.5010 C   0  0  0  0  0  0  0  0  0  0  0  0
  -23.8550    0.0800   42.3750 C   0  0  0  0  0  0  0  0  0  0  0  0
  -18.9240   -4.8180   38.1530 C   0  0  0  0  0  0  0  0  0  0  0  0
  -24.0690   -6.0690   41.4180 C   0  0  0  0  0  0  0  0  0  0  0  0
  -24.3780   -4.8380   41.9610 C   0  0  0  0  0  0  0  0  0  0  0  0
  -25.8340    3.7360   42.3980 C   0  0  0  0  0  0  0  0  0  0  0  0
  -23.6060    2.5410   42.7110 C   0  0  2  0  0  0  0  0  0  0  0  0
  -22.3160   -4.9910   40.0330 C   0  0  0  0  0  0  0  0  0  0  0  0
  -19.8110   -4.6660   39.2300 C   0  0  0  0  0  0  0  0  0  0  0  0
  -21.4140    3.4600   42.0880 C   0  0  0  0  0  0  0  0  0  0  0  0
  -23.6930   -3.6890   41.5570 C   0  0  0  0  0  0  0  0  0  0  0  0
  -22.4400    3.4800   42.9360 C   0  0  0  0  0  0  0  0  0  0  0  0
  -15.1415   -3.8145   38.8052 H   0  0  0  0  0  0  0  0  0  0  0  0
  -15.3667   -3.3311   40.4531 H   0  0  0  0  0  0  0  0  0  0  0  0
  -20.3687   -5.5693   36.7845 H   0  0  0  0  0  0  0  0  0  0  0  0
  -18.7720   -5.4428   36.1255 H   0  0  0  0  0  0  0  0  0  0  0  0
  -22.6537    1.1887   40.1882 H   0  0  0  0  0  0  0  0  0  0  0  0
  -25.1719   -9.1385   41.9520 H   0  0  0  0  0  0  0  0  0  0  0  0
  -24.6054   -8.6126   40.5135 H   0  0  0  0  0  0  0  0  0  0  0  0
  -23.5932   -8.7547   41.7871 H   0  0  0  0  0  0  0  0  0  0  0  0
  -27.3071   -4.6540   43.3323 H   0  0  0  0  0  0  0  0  0  0  0  0
  -26.8548   -3.8928   41.9602 H   0  0  0  0  0  0  0  0  0  0  0  0
  -26.9387   -5.5231   41.9998 H   0  0  0  0  0  0  0  0  0  0  0  0
  -25.3655    3.4048   44.4056 H   0  0  0  0  0  0  0  0  0  0  0  0
  -25.9807    4.8922   44.1305 H   0  0  0  0  0  0  0  0  0  0  0  0
  -26.9669    3.5907   44.1459 H   0  0  0  0  0  0  0  0  0  0  0  0
  -26.5303    4.2411   40.4929 H   0  0  0  0  0  0  0  0  0  0  0  0
  -27.7249    4.1349   41.6013 H   0  0  0  0  0  0  0  0  0  0  0  0
  -26.7387    5.4364   41.5859 H   0  0  0  0  0  0  0  0  0  0  0  0
  -21.7678    3.0267   40.1547 H   0  0  0  0  0  0  0  0  0  0  0  0
  -20.4848    2.2383   40.7863 H   0  0  0  0  0  0  0  0  0  0  0  0
  -19.9040   -4.0659   41.2452 H   0  0  0  0  0  0  0  0  0  0  0  0
  -19.5344    5.8542   43.5408 H   0  0  0  0  0  0  0  0  0  0  0  0
  -21.3702    5.8907   45.0474 H   0  0  0  0  0  0  0  0  0  0  0  0
  -22.8152   -1.2585   40.9115 H   0  0  0  0  0  0  0  0  0  0  0  0
  -19.5276    4.3381   41.6613 H   0  0  0  0  0  0  0  0  0  0  0  0
  -23.2182    4.4026   44.7124 H   0  0  0  0  0  0  0  0  0  0  0  0
  -24.7217   -2.3326   42.8977 H   0  0  0  0  0  0  0  0  0  0  0  0
  -22.7942   -7.0373   40.0239 H   0  0  0  0  0  0  0  0  0  0  0  0
  -24.5141    3.3217   40.9047 H   0  0  0  0  0  0  0  0  0  0  0  0
  -21.5595   -4.5198   38.2016 H   0  0  0  0  0  0  0  0  0  0  0  0
  -21.2076   -6.0398   38.6839 H   0  0  0  0  0  0  0  0  0  0  0  0
  -22.1751   -2.9292   40.2803 H   0  0  0  0  0  0  0  0  0  0  0  0
  -23.9950    2.2921   43.5980 H   0  0  0  0  0  0  0  0  0  0  0  0
  1 27  2  0  0  0  0
  2 10  1  0  0  0  0
  2 29  1  0  0  0  0
  3 11  1  0  0  0  0
  3 30  1  0  0  0  0
  4 26  1  0  0  0  0
  5 28  1  0  0  0  0
  6  9  1  0  0  0  0
  6 14  1  0  0  0  0
  7 15  1  0  0  0  0
  7 26  2  0  0  0  0
  8 26  1  0  0  0  0
  8 28  2  0  0  0  0
  9 27  1  0  0  0  0
  9 32  1  0  0  0  0
 12 31  1  0  0  0  0
 13 31  1  0  0  0  0
 14 35  1  0  0  0  0
 15 34  2  0  0  0  0
 16 17  2  0  0  0  0
 16 19  1  0  0  0  0
 17 20  1  0  0  0  0
 18 21  2  0  0  0  0
 18 27  1  0  0  0  0
 19 35  2  0  0  0  0
 20 37  2  0  0  0  0
 21 36  1  0  0  0  0
 22 29  1  0  0  0  0
 22 33  2  0  0  0  0
 23 31  2  0  0  0  0
 23 32  1  0  0  0  0
 24 33  1  0  0  0  0
 24 34  1  0  0  0  0
 25 33  1  0  0  0  0
 25 36  2  0  0  0  0
 28 34  1  0  0  0  0
 29 30  2  0  0  0  0
 30 36  1  0  0  0  0
 32 37  1  0  0  0  0
 35 37  1  0  0  0  0
  4 38  1  0  0  0  0
  4 39  1  0  0  0  0
  5 40  1  0  0  0  0
  5 41  1  0  0  0  0
  6 42  1  0  0  0  0
 10 43  1  0  0  0  0
 10 44  1  0  0  0  0
 10 45  1  0  0  0  0
 11 46  1  0  0  0  0
 11 47  1  0  0  0  0
 11 48  1  0  0  0  0
 12 49  1  0  0  0  0
 12 50  1  0  0  0  0
 12 51  1  0  0  0  0
 13 52  1  0  0  0  0
 13 53  1  0  0  0  0
 13 54  1  0  0  0  0
 14 55  1  0  0  0  0
 14 56  1  0  0  0  0
 15 57  1  0  0  0  0
 16 58  1  0  0  0  0
 17 59  1  0  0  0  0
 18 60  1  0  0  0  0
 19 61  1  0  0  0  0
 20 62  1  0  0  0  0
 21 63  1  0  0  0  0
 22 64  1  0  0  0  0
 23 65  1  0  0  0  0
 24 66  1  0  0  0  0
 24 67  1  0  0  0  0
 25 68  1  0  0  0  0
 32 69  1  0  0  0  0
M  END
$$$$
CL_F_203
  unicon  05052617403D 1   1.00000     0.00000     0
unicon 1.5.0   
  1  0  0  0  0  0            999 V2000
  -27.8200   -8.9810   33.6460 Cl  0  5  0  0  0  0  0  0  0  0  0  0
M  CHG  1   1  -1
M  END
$$$$
53I_D_201
  unicon  05052617403D 1   1.00000     0.00000     0
unicon 1.5.0   
 71 74  0  0  0  0            999 V2000
   17.6070   40.7990    0.4290 O   0  0  0  0  0  0  0  0  0  0  0  0
   10.8860   40.9250   -1.3530 O   0  0  0  0  0  0  0  0  0  0  0  0
   13.5970   40.9070   -0.6150 O   0  0  0  0  0  0  0  0  0  0  0  0
   12.6500   31.6710   -3.7080 N   0  0  0  0  0  0  0  0  0  0  0  0
   11.4760   35.3480   -6.6540 N   0  0  0  0  0  0  0  0  0  0  0  0
   18.3190   38.3510   -2.0920 N   0  0  0  0  0  0  0  0  0  0  0  0
   12.4750   33.8960   -2.8390 N   0  0  0  0  0  0  0  0  0  0  0  0
   12.0720   33.5300   -5.1290 N   0  0  0  0  0  0  0  0  0  0  0  0
   18.4930   39.1580   -1.0100 N   0  0  0  0  0  0  0  0  0  0  0  0
    9.6160   41.1330   -1.9550 C   0  0  0  0  0  0  0  0  0  0  0  0
   13.6200   42.2570   -0.8960 C   0  0  0  0  0  0  0  0  0  0  0  0
   21.1090   41.7620   -2.6050 C   0  0  0  0  0  0  0  0  0  0  0  0
   22.7460   39.9660   -1.6860 C   0  0  0  0  0  0  0  0  0  0  0  0
   19.3240   37.4120   -2.4310 C   0  0  0  0  0  0  0  0  0  0  0  0
   12.2230   35.2560   -2.9830 C   0  0  0  0  0  0  0  0  0  0  0  0
   21.9770   35.4330   -0.5260 C   0  0  0  0  0  0  0  0  0  0  0  0
   22.1950   36.2630    0.5500 C   0  0  0  0  0  0  0  0  0  0  0  0
   16.0700   40.1500   -1.3230 C   0  0  0  0  0  0  0  0  0  0  0  0
   21.0350   35.7960   -1.5180 C   0  0  0  0  0  0  0  0  0  0  0  0
   21.4870   37.4580    0.6610 C   0  0  0  0  0  0  0  0  0  0  0  0
   15.4500   39.0200   -1.8170 C   0  0  0  0  0  0  0  0  0  0  0  0
   11.2880   39.0870   -2.9100 C   0  0  0  0  0  0  0  0  0  0  0  0
   20.5700   40.3590   -0.5860 C   0  0  0  0  0  0  0  0  0  0  0  0
   11.6000   37.2090   -4.5360 C   0  0  0  0  0  0  0  0  0  0  0  0
   13.4960   38.1370   -3.1570 C   0  0  0  0  0  0  0  0  0  0  0  0
   12.3920   33.0690   -3.8850 C   0  0  0  0  0  0  0  0  0  0  0  0
   17.4220   40.0680   -0.5710 C   0  0  0  0  0  0  0  0  0  0  0  0
   11.8180   34.8620   -5.3430 C   0  0  0  0  0  0  0  0  0  0  0  0
   11.7800   40.0120   -1.9390 C   0  0  0  0  0  0  0  0  0  0  0  0
   13.1250   39.9930   -1.5860 C   0  0  0  0  0  0  0  0  0  0  0  0
   21.3250   40.5380   -1.7080 C   0  0  0  0  0  0  0  0  0  0  0  0
   19.7370   39.1390   -0.2460 C   0  0  2  0  0  0  0  0  0  0  0  0
   12.1540   38.1590   -3.5020 C   0  0  0  0  0  0  0  0  0  0  0  0
   11.8930   35.7570   -4.2660 C   0  0  0  0  0  0  0  0  0  0  0  0
   20.3050   37.0310   -1.4050 C   0  0  0  0  0  0  0  0  0  0  0  0
   13.9980   39.0630   -2.1810 C   0  0  0  0  0  0  0  0  0  0  0  0
   20.5170   37.8370   -0.3710 C   0  0  0  0  0  0  0  0  0  0  0  0
   12.5890   31.0486   -4.4883 H   0  0  0  0  0  0  0  0  0  0  0  0
   12.8911   31.3176   -2.8042 H   0  0  0  0  0  0  0  0  0  0  0  0
   11.2936   36.3211   -6.7946 H   0  0  0  0  0  0  0  0  0  0  0  0
   11.4208   34.7125   -7.4241 H   0  0  0  0  0  0  0  0  0  0  0  0
   18.2004   38.9490   -2.8847 H   0  0  0  0  0  0  0  0  0  0  0  0
    9.1014   41.8059   -1.4236 H   0  0  0  0  0  0  0  0  0  0  0  0
    9.7406   41.4700   -2.8882 H   0  0  0  0  0  0  0  0  0  0  0  0
    9.1121   40.2695   -1.9769 H   0  0  0  0  0  0  0  0  0  0  0  0
   13.9793   42.7556   -0.1072 H   0  0  0  0  0  0  0  0  0  0  0  0
   14.2054   42.4223   -1.6897 H   0  0  0  0  0  0  0  0  0  0  0  0
   12.6920   42.5719   -1.0949 H   0  0  0  0  0  0  0  0  0  0  0  0
   20.1542   42.0535   -2.5469 H   0  0  0  0  0  0  0  0  0  0  0  0
   21.7039   42.5065   -2.3020 H   0  0  0  0  0  0  0  0  0  0  0  0
   21.3280   41.5245   -3.5514 H   0  0  0  0  0  0  0  0  0  0  0  0
   22.7777   39.1756   -1.0743 H   0  0  0  0  0  0  0  0  0  0  0  0
   23.0060   39.6835   -2.6094 H   0  0  0  0  0  0  0  0  0  0  0  0
   23.3819   40.6655   -1.3600 H   0  0  0  0  0  0  0  0  0  0  0  0
   19.8356   37.7928   -3.2012 H   0  0  0  0  0  0  0  0  0  0  0  0
   18.8598   36.5749   -2.7205 H   0  0  0  0  0  0  0  0  0  0  0  0
   12.2739   35.8693   -2.1948 H   0  0  0  0  0  0  0  0  0  0  0  0
   22.4835   34.5746   -0.6068 H   0  0  0  0  0  0  0  0  0  0  0  0
   22.8608   36.0087    1.2514 H   0  0  0  0  0  0  0  0  0  0  0  0
   15.6367   41.0417   -1.4535 H   0  0  0  0  0  0  0  0  0  0  0  0
   20.8763   35.1926   -2.2995 H   0  0  0  0  0  0  0  0  0  0  0  0
   21.6408   38.0582    1.4460 H   0  0  0  0  0  0  0  0  0  0  0  0
   15.9699   38.1735   -1.9317 H   0  0  0  0  0  0  0  0  0  0  0  0
   10.3220   39.1021   -3.1679 H   0  0  0  0  0  0  0  0  0  0  0  0
   19.9254   41.1235   -0.5816 H   0  0  0  0  0  0  0  0  0  0  0  0
   21.2096   40.4579    0.1763 H   0  0  0  0  0  0  0  0  0  0  0  0
   11.9941   37.4479   -5.4235 H   0  0  0  0  0  0  0  0  0  0  0  0
   10.6075   37.3270   -4.5694 H   0  0  0  0  0  0  0  0  0  0  0  0
   14.1133   37.4779   -3.5866 H   0  0  0  0  0  0  0  0  0  0  0  0
   20.8947   39.8479   -2.2899 H   0  0  0  0  0  0  0  0  0  0  0  0
   19.4817   39.2272    0.7168 H   0  0  0  0  0  0  0  0  0  0  0  0
  1 27  2  0  0  0  0
  2 10  1  0  0  0  0
  2 29  1  0  0  0  0
  3 11  1  0  0  0  0
  3 30  1  0  0  0  0
  4 26  1  0  0  0  0
  5 28  1  0  0  0  0
  6  9  1  0  0  0  0
  6 14  1  0  0  0  0
  7 15  1  0  0  0  0
  7 26  2  0  0  0  0
  8 26  1  0  0  0  0
  8 28  2  0  0  0  0
  9 27  1  0  0  0  0
  9 32  1  0  0  0  0
 12 31  1  0  0  0  0
 13 31  1  0  0  0  0
 14 35  1  0  0  0  0
 15 34  2  0  0  0  0
 16 17  2  0  0  0  0
 16 19  1  0  0  0  0
 17 20  1  0  0  0  0
 18 21  2  0  0  0  0
 18 27  1  0  0  0  0
 19 35  2  0  0  0  0
 20 37  2  0  0  0  0
 21 36  1  0  0  0  0
 22 29  1  0  0  0  0
 22 33  2  0  0  0  0
 23 31  1  0  0  0  0
 23 32  1  0  0  0  0
 24 33  1  0  0  0  0
 24 34  1  0  0  0  0
 25 33  1  0  0  0  0
 25 36  2  0  0  0  0
 28 34  1  0  0  0  0
 29 30  2  0  0  0  0
 30 36  1  0  0  0  0
 32 37  1  0  0  0  0
 35 37  1  0  0  0  0
  4 38  1  0  0  0  0
  4 39  1  0  0  0  0
  5 40  1  0  0  0  0
  5 41  1  0  0  0  0
  6 42  1  0  0  0  0
 10 43  1  0  0  0  0
 10 44  1  0  0  0  0
 10 45  1  0  0  0  0
 11 46  1  0  0  0  0
 11 47  1  0  0  0  0
 11 48  1  0  0  0  0
 12 49  1  0  0  0  0
 12 50  1  0  0  0  0
 12 51  1  0  0  0  0
 13 52  1  0  0  0  0
 13 53  1  0  0  0  0
 13 54  1  0  0  0  0
 14 55  1  0  0  0  0
 14 56  1  0  0  0  0
 15 57  1  0  0  0  0
 16 58  1  0  0  0  0
 17 59  1  0  0  0  0
 18 60  1  0  0  0  0
 19 61  1  0  0  0  0
 20 62  1  0  0  0  0
 21 63  1  0  0  0  0
 22 64  1  0  0  0  0
 23 65  1  0  0  0  0
 23 66  1  0  0  0  0
 24 67  1  0  0  0  0
 24 68  1  0  0  0  0
 25 69  1  0  0  0  0
 31 70  1  0  0  0  0
 32 71  1  0  0  0  0
M  END
$$$$
CL_D_203
  unicon  05052617403D 1   1.00000     0.00000     0
unicon 1.5.0   
  1  0  0  0  0  0            999 V2000
    8.0240   44.0340   -9.8300 Cl  0  5  0  0  0  0  0  0  0  0  0  0
M  CHG  1   1  -1
M  END
$$$$
53I_E_201
  unicon  05052617403D 1   1.00000     0.00000     0
unicon 1.5.0   
 69 72  0  0  0  0            999 V2000
    7.0770   34.6830   41.9510 O   0  0  0  0  0  0  0  0  0  0  0  0
    7.0450   27.4650   40.3410 O   0  0  0  0  0  0  0  0  0  0  0  0
    6.5030   29.9370   41.4720 O   0  0  0  0  0  0  0  0  0  0  0  0
   16.3060   30.7340   38.6510 N   0  0  0  0  0  0  0  0  0  0  0  0
   12.7340   29.1670   35.7730 N   0  0  0  0  0  0  0  0  0  0  0  0
    9.7100   35.8860   39.8570 N   0  0  0  0  0  0  0  0  0  0  0  0
   14.0440   30.5840   39.4840 N   0  0  0  0  0  0  0  0  0  0  0  0
   14.4950   29.9660   37.2680 N   0  0  0  0  0  0  0  0  0  0  0  0
    8.6980   35.9300   40.7670 N   0  0  0  0  0  0  0  0  0  0  0  0
    7.5530   26.1470   40.2130 C   0  0  0  0  0  0  0  0  0  0  0  0
    5.2430   30.1560   40.9590 C   0  0  0  0  0  0  0  0  0  0  0  0
    5.3820   38.0820   42.0240 C   0  0  0  0  0  0  0  0  0  0  0  0
    5.3290   39.0280   39.5750 C   0  0  0  0  0  0  0  0  0  0  0  0
   10.7050   36.8880   39.9170 C   0  0  0  0  0  0  0  0  0  0  0  0
   12.6910   30.2870   39.3340 C   0  0  0  0  0  0  0  0  0  0  0  0
   11.6320   39.7870   42.2110 C   0  0  0  0  0  0  0  0  0  0  0  0
   10.4670   39.9430   42.9250 C   0  0  0  0  0  0  0  0  0  0  0  0
    8.4900   33.3850   40.4340 C   0  0  0  0  0  0  0  0  0  0  0  0
   11.7250   38.7850   41.2150 C   0  0  0  0  0  0  0  0  0  0  0  0
    9.3780   39.1160   42.6750 C   0  0  0  0  0  0  0  0  0  0  0  0
    7.9730   32.2000   40.8920 C   0  0  0  0  0  0  0  0  0  0  0  0
    8.9250   28.4600   39.0650 C   0  0  0  0  0  0  0  0  0  0  0  0
    7.3670   37.9090   40.4250 C   0  0  0  0  0  0  0  0  0  0  0  0
   10.8260   29.4230   37.7340 C   0  0  0  0  0  0  0  0  0  0  0  0
    9.4230   30.8210   39.3070 C   0  0  0  0  0  0  0  0  0  0  0  0
   14.9140   30.4230   38.4820 C   0  0  0  0  0  0  0  0  0  0  0  0
    8.0160   34.6880   41.1190 C   0  0  0  0  0  0  0  0  0  0  0  0
   13.1750   29.6540   37.0500 C   0  0  0  0  0  0  0  0  0  0  0  0
    7.8380   28.5710   39.9910 C   0  0  0  0  0  0  0  0  0  0  0  0
    7.5670   29.7990   40.5600 C   0  0  0  0  0  0  0  0  0  0  0  0
    6.1250   38.3940   40.7230 C   0  0  0  0  0  0  0  0  0  0  0  0
    8.2890   37.1850   41.3770 C   0  0  2  0  0  0  0  0  0  0  0  0
    9.7120   29.5870   38.7430 C   0  0  0  0  0  0  0  0  0  0  0  0
   12.2410   29.8100   38.0790 C   0  0  0  0  0  0  0  0  0  0  0  0
   10.6000   37.9280   40.9540 C   0  0  0  0  0  0  0  0  0  0  0  0
    8.3310   30.9160   40.2350 C   0  0  0  0  0  0  0  0  0  0  0  0
    9.4760   38.0770   41.6530 C   0  0  0  0  0  0  0  0  0  0  0  0
   16.9426   30.6073   37.8903 H   0  0  0  0  0  0  0  0  0  0  0  0
   16.6386   31.0772   39.5294 H   0  0  0  0  0  0  0  0  0  0  0  0
   11.7699   28.9439   35.6287 H   0  0  0  0  0  0  0  0  0  0  0  0
   13.3910   29.0510   35.0281 H   0  0  0  0  0  0  0  0  0  0  0  0
    9.2945   35.9345   38.9487 H   0  0  0  0  0  0  0  0  0  0  0  0
    6.8567   25.4915   40.5053 H   0  0  0  0  0  0  0  0  0  0  0  0
    7.7937   25.9738   39.2580 H   0  0  0  0  0  0  0  0  0  0  0  0
    8.3668   26.0464   40.7854 H   0  0  0  0  0  0  0  0  0  0  0  0
    4.5866   30.2346   41.7093 H   0  0  0  0  0  0  0  0  0  0  0  0
    5.2426   31.0020   40.4258 H   0  0  0  0  0  0  0  0  0  0  0  0
    4.9854   29.3904   40.3696 H   0  0  0  0  0  0  0  0  0  0  0  0
    6.0166   37.6749   42.6809 H   0  0  0  0  0  0  0  0  0  0  0  0
    5.0056   38.9270   42.4038 H   0  0  0  0  0  0  0  0  0  0  0  0
    4.6382   37.4401   41.8374 H   0  0  0  0  0  0  0  0  0  0  0  0
    5.9336   39.1767   38.7925 H   0  0  0  0  0  0  0  0  0  0  0  0
    4.5836   38.4168   39.3089 H   0  0  0  0  0  0  0  0  0  0  0  0
    4.9510   39.9037   39.8753 H   0  0  0  0  0  0  0  0  0  0  0  0
   10.7072   37.3539   39.0322 H   0  0  0  0  0  0  0  0  0  0  0  0
   11.5810   36.4251   40.0521 H   0  0  0  0  0  0  0  0  0  0  0  0
   12.0530   30.4078   40.0945 H   0  0  0  0  0  0  0  0  0  0  0  0
   12.4143   40.3819   42.3955 H   0  0  0  0  0  0  0  0  0  0  0  0
   10.4031   40.6533   43.6260 H   0  0  0  0  0  0  0  0  0  0  0  0
    9.1504   33.4057   39.6834 H   0  0  0  0  0  0  0  0  0  0  0  0
   12.5713   38.6734   40.6941 H   0  0  0  0  0  0  0  0  0  0  0  0
    8.5305   39.2320   43.1930 H   0  0  0  0  0  0  0  0  0  0  0  0
    7.3501   32.2001   41.6743 H   0  0  0  0  0  0  0  0  0  0  0  0
    9.1283   27.5765   38.6429 H   0  0  0  0  0  0  0  0  0  0  0  0
    7.6958   38.0460   39.4906 H   0  0  0  0  0  0  0  0  0  0  0  0
   10.5687   29.9652   36.9341 H   0  0  0  0  0  0  0  0  0  0  0  0
   10.8472   28.4542   37.4871 H   0  0  0  0  0  0  0  0  0  0  0  0
    9.9643   31.6284   39.0721 H   0  0  0  0  0  0  0  0  0  0  0  0
    7.8058   36.9984   42.2324 H   0  0  0  0  0  0  0  0  0  0  0  0
  1 27  2  0  0  0  0
  2 10  1  0  0  0  0
  2 29  1  0  0  0  0
  3 11  1  0  0  0  0
  3 30  1  0  0  0  0
  4 26  1  0  0  0  0
  5 28  1  0  0  0  0
  6  9  1  0  0  0  0
  6 14  1  0  0  0  0
  7 15  1  0  0  0  0
  7 26  2  0  0  0  0
  8 26  1  0  0  0  0
  8 28  2  0  0  0  0
  9 27  1  0  0  0  0
  9 32  1  0  0  0  0
 12 31  1  0  0  0  0
 13 31  1  0  0  0  0
 14 35  1  0  0  0  0
 15 34  2  0  0  0  0
 16 17  2  0  0  0  0
 16 19  1  0  0  0  0
 17 20  1  0  0  0  0
 18 21  2  0  0  0  0
 18 27  1  0  0  0  0
 19 35  2  0  0  0  0
 20 37  2  0  0  0  0
 21 36  1  0  0  0  0
 22 29  1  0  0  0  0
 22 33  2  0  0  0  0
 23 31  2  0  0  0  0
 23 32  1  0  0  0  0
 24 33  1  0  0  0  0
 24 34  1  0  0  0  0
 25 33  1  0  0  0  0
 25 36  2  0  0  0  0
 28 34  1  0  0  0  0
 29 30  2  0  0  0  0
 30 36  1  0  0  0  0
 32 37  1  0  0  0  0
 35 37  1  0  0  0  0
  4 38  1  0  0  0  0
  4 39  1  0  0  0  0
  5 40  1  0  0  0  0
  5 41  1  0  0  0  0
  6 42  1  0  0  0  0
 10 43  1  0  0  0  0
 10 44  1  0  0  0  0
 10 45  1  0  0  0  0
 11 46  1  0  0  0  0
 11 47  1  0  0  0  0
 11 48  1  0  0  0  0
 12 49  1  0  0  0  0
 12 50  1  0  0  0  0
 12 51  1  0  0  0  0
 13 52  1  0  0  0  0
 13 53  1  0  0  0  0
 13 54  1  0  0  0  0
 14 55  1  0  0  0  0
 14 56  1  0  0  0  0
 15 57  1  0  0  0  0
 16 58  1  0  0  0  0
 17 59  1  0  0  0  0
 18 60  1  0  0  0  0
 19 61  1  0  0  0  0
 20 62  1  0  0  0  0
 21 63  1  0  0  0  0
 22 64  1  0  0  0  0
 23 65  1  0  0  0  0
 24 66  1  0  0  0  0
 24 67  1  0  0  0  0
 25 68  1  0  0  0  0
 32 69  1  0  0  0  0
M  END
$$$$
CL_E_203
  unicon  05052617403D 1   1.00000     0.00000     0
unicon 1.5.0   
  1  0  0  0  0  0            999 V2000
    4.2450   25.4710   32.4800 Cl  0  5  0  0  0  0  0  0  0  0  0  0
M  CHG  1   1  -1
M  END
$$$$
