T2W_D_104
  unicon  11052518393D 1   1.00000     0.00000     0
unicon 1.5.0   
 78 79  0  0  0  0            999 V2000
  -13.8000   38.5520  -32.1630 O   0  0  0  0  0  0  0  0  0  0  0  0
  -16.7100   41.2210  -30.6630 O   0  0  0  0  0  0  0  0  0  0  0  0
  -18.9120   39.8610  -41.4540 O   0  0  0  0  0  0  0  0  0  0  0  0
  -13.8210   38.1260  -29.9370 O   0  0  0  0  0  0  0  0  0  0  0  0
  -16.7840   42.5810  -42.3950 O   0  0  0  0  0  0  0  0  0  0  0  0
  -12.9480   36.6440  -31.2910 N   0  0  0  0  0  0  0  0  0  0  0  0
  -15.9030   43.2280  -31.3210 N   0  0  0  0  0  0  0  0  0  0  0  0
  -12.5440   36.0630  -32.5570 C   0  0  0  0  0  0  0  0  0  0  0  0
  -15.2850   39.1580  -28.3230 C   0  0  0  0  0  0  0  0  0  0  0  0
  -13.9490   43.9640  -38.4290 C   0  0  0  0  0  0  0  0  0  0  0  0
  -17.6250   43.0520  -44.5250 C   0  0  0  0  0  0  0  0  0  0  0  0
  -19.1240   42.8170  -42.5410 C   0  0  0  0  0  0  0  0  0  0  0  0
  -17.5080   38.4270  -42.7560 C   0  0  0  0  0  0  0  0  0  0  0  0
  -14.3670   41.6660  -30.3970 C   0  0  0  0  0  0  0  0  0  0  0  0
  -13.9060   40.5290  -29.9020 C   0  0  0  0  0  0  0  0  0  0  0  0
  -15.8190   42.4650  -40.2290 C   0  0  0  0  0  0  0  0  0  0  0  0
  -17.0710   45.1640  -32.2460 C   0  0  0  0  0  0  0  0  0  0  0  0
  -17.5570   42.8730  -33.0900 C   0  0  0  0  0  0  0  0  0  0  0  0
  -16.1720   42.9090  -39.0390 C   0  0  0  0  0  0  0  0  0  0  0  0
  -15.9750   43.9900  -36.9380 C   0  0  0  0  0  0  0  0  0  0  0  0
  -16.0910   45.3780  -33.3950 C   0  0  0  0  0  0  0  0  0  0  0  0
  -16.5750   43.0870  -34.2360 C   0  0  0  0  0  0  0  0  0  0  0  0
  -15.4420   44.7500  -35.7610 C   0  0  0  0  0  0  0  0  0  0  0  0
  -16.5540   40.3630  -41.4630 C   0  0  0  0  0  0  0  0  0  0  0  0
  -17.9650   40.7800  -43.4870 C   0  0  0  0  0  0  0  0  0  0  0  0
  -13.5360   37.8310  -31.2260 C   0  0  0  0  0  0  0  0  0  0  0  0
  -15.7510   41.9970  -30.8080 C   0  0  0  0  0  0  0  0  0  0  0  0
  -14.7110   39.2800  -29.7150 C   0  0  1  0  0  0  0  0  0  0  0  0
  -16.7970   41.8380  -41.1730 C   0  0  2  0  0  0  0  0  0  0  0  0
  -17.1720   43.6970  -31.8760 C   0  0  3  0  0  0  0  0  0  0  0  0
  -15.3740   43.6440  -38.0770 C   0  0  0  0  0  0  0  0  0  0  0  0
  -16.4530   44.5550  -34.6260 C   0  0  3  0  0  0  0  0  0  0  0  0
  -17.8870   42.2860  -43.2420 C   0  0  0  0  0  0  0  0  0  0  0  0
  -17.7380   39.8570  -42.2850 C   0  0  2  0  0  0  0  0  0  0  0  0
  -19.0875   40.7904  -41.1295 H   0  0  0  0  0  0  0  0  0  0  0  0
  -12.7789   36.1368  -30.4459 H   0  0  0  0  0  0  0  0  0  0  0  0
  -15.1185   43.8481  -31.3238 H   0  0  0  0  0  0  0  0  0  0  0  0
  -12.1220   35.1710  -32.3949 H   0  0  0  0  0  0  0  0  0  0  0  0
  -13.3463   35.9506  -33.1433 H   0  0  0  0  0  0  0  0  0  0  0  0
  -11.8852   36.6668  -33.0057 H   0  0  0  0  0  0  0  0  0  0  0  0
  -15.8946   39.9304  -28.1449 H   0  0  0  0  0  0  0  0  0  0  0  0
  -15.7990   38.3035  -28.2481 H   0  0  0  0  0  0  0  0  0  0  0  0
  -14.5413   39.1593  -27.6545 H   0  0  0  0  0  0  0  0  0  0  0  0
  -13.5255   44.4697  -37.6774 H   0  0  0  0  0  0  0  0  0  0  0  0
  -13.4452   43.1143  -38.5847 H   0  0  0  0  0  0  0  0  0  0  0  0
  -13.9277   44.5210  -39.2592 H   0  0  0  0  0  0  0  0  0  0  0  0
  -18.3708   42.8865  -45.1702 H   0  0  0  0  0  0  0  0  0  0  0  0
  -17.5691   44.0300  -44.3238 H   0  0  0  0  0  0  0  0  0  0  0  0
  -16.7624   42.7444  -44.9266 H   0  0  0  0  0  0  0  0  0  0  0  0
  -19.9306   42.6316  -43.1023 H   0  0  0  0  0  0  0  0  0  0  0  0
  -19.2241   42.3658  -41.6542 H   0  0  0  0  0  0  0  0  0  0  0  0
  -19.0323   43.8034  -42.4047 H   0  0  0  0  0  0  0  0  0  0  0  0
  -16.6953   38.3943  -43.3377 H   0  0  0  0  0  0  0  0  0  0  0  0
  -17.3746   37.8323  -41.9632 H   0  0  0  0  0  0  0  0  0  0  0  0
  -18.3031   38.1155  -43.2763 H   0  0  0  0  0  0  0  0  0  0  0  0
  -13.6936   42.3969  -30.5081 H   0  0  0  0  0  0  0  0  0  0  0  0
  -12.9437   40.5014  -29.6312 H   0  0  0  0  0  0  0  0  0  0  0  0
  -14.8634   42.5501  -40.5112 H   0  0  0  0  0  0  0  0  0  0  0  0
  -17.9739   45.4935  -32.5220 H   0  0  0  0  0  0  0  0  0  0  0  0
  -16.7570   45.6803  -31.4492 H   0  0  0  0  0  0  0  0  0  0  0  0
  -17.5598   41.9049  -32.8395 H   0  0  0  0  0  0  0  0  0  0  0  0
  -18.4721   43.1424  -33.3901 H   0  0  0  0  0  0  0  0  0  0  0  0
  -17.1132   42.7133  -38.7638 H   0  0  0  0  0  0  0  0  0  0  0  0
  -16.9278   43.6975  -36.8565 H   0  0  0  0  0  0  0  0  0  0  0  0
  -15.1757   45.1148  -33.0901 H   0  0  0  0  0  0  0  0  0  0  0  0
  -16.0938   46.3466  -33.6437 H   0  0  0  0  0  0  0  0  0  0  0  0
  -16.8901   42.5682  -35.0307 H   0  0  0  0  0  0  0  0  0  0  0  0
  -15.6752   42.7529  -33.9552 H   0  0  0  0  0  0  0  0  0  0  0  0
  -15.3573   45.7207  -35.9857 H   0  0  0  0  0  0  0  0  0  0  0  0
  -14.5480   44.3906  -35.4933 H   0  0  0  0  0  0  0  0  0  0  0  0
  -16.4901   39.8522  -40.6056 H   0  0  0  0  0  0  0  0  0  0  0  0
  -15.7060   40.2519  -41.9812 H   0  0  0  0  0  0  0  0  0  0  0  0
  -17.2757   40.5519  -44.1746 H   0  0  0  0  0  0  0  0  0  0  0  0
  -18.8757   40.5819  -43.8495 H   0  0  0  0  0  0  0  0  0  0  0  0
  -15.4541   39.2602  -30.3839 H   0  0  0  0  0  0  0  0  0  0  0  0
  -17.7088   41.9249  -40.7716 H   0  0  0  0  0  0  0  0  0  0  0  0
  -17.8827   43.5916  -31.1805 H   0  0  0  0  0  0  0  0  0  0  0  0
  -17.3467   44.8634  -34.9519 H   0  0  0  0  0  0  0  0  0  0  0  0
  1 26  2  0  0  0  0
  2 27  2  0  0  0  0
  3 34  1  0  0  0  0
  4 26  1  0  0  0  0
  4 28  1  0  0  0  0
  5 29  1  0  0  0  0
  5 33  1  0  0  0  0
  6  8  1  0  0  0  0
  6 26  1  0  0  0  0
  7 27  1  0  0  0  0
  7 30  1  0  0  0  0
  9 28  1  0  0  0  0
 10 31  1  0  0  0  0
 11 33  1  0  0  0  0
 12 33  1  0  0  0  0
 13 34  1  0  0  0  0
 14 15  2  0  0  0  0
 14 27  1  0  0  0  0
 15 28  1  0  0  0  0
 16 19  2  0  0  0  0
 16 29  1  0  0  0  0
 17 21  1  0  0  0  0
 17 30  1  0  0  0  0
 18 22  1  0  0  0  0
 18 30  1  0  0  0  0
 19 31  1  0  0  0  0
 20 23  1  0  0  0  0
 20 31  2  0  0  0  0
 21 32  1  0  0  0  0
 22 32  1  0  0  0  0
 23 32  1  0  0  0  0
 24 29  1  0  0  0  0
 24 34  1  0  0  0  0
 25 33  1  0  0  0  0
 25 34  1  0  0  0  0
  3 35  1  0  0  0  0
  6 36  1  0  0  0  0
  7 37  1  0  0  0  0
  8 38  1  0  0  0  0
  8 39  1  0  0  0  0
  8 40  1  0  0  0  0
  9 41  1  0  0  0  0
  9 42  1  0  0  0  0
  9 43  1  0  0  0  0
 10 44  1  0  0  0  0
 10 45  1  0  0  0  0
 10 46  1  0  0  0  0
 11 47  1  0  0  0  0
 11 48  1  0  0  0  0
 11 49  1  0  0  0  0
 12 50  1  0  0  0  0
 12 51  1  0  0  0  0
 12 52  1  0  0  0  0
 13 53  1  0  0  0  0
 13 54  1  0  0  0  0
 13 55  1  0  0  0  0
 14 56  1  0  0  0  0
 15 57  1  0  0  0  0
 16 58  1  0  0  0  0
 17 59  1  0  0  0  0
 17 60  1  0  0  0  0
 18 61  1  0  0  0  0
 18 62  1  0  0  0  0
 19 63  1  0  0  0  0
 20 64  1  0  0  0  0
 21 65  1  0  0  0  0
 21 66  1  0  0  0  0
 22 67  1  0  0  0  0
 22 68  1  0  0  0  0
 23 69  1  0  0  0  0
 23 70  1  0  0  0  0
 24 71  1  0  0  0  0
 24 72  1  0  0  0  0
 25 73  1  0  0  0  0
 25 74  1  0  0  0  0
 28 75  1  0  0  0  0
 29 76  1  0  0  0  0
 30 77  1  0  0  0  0
 32 78  1  0  0  0  0
M  END
$$$$
